* NGSPICE file created from user_analog_project_wrapper.ext - technology: sky130A

.subckt bgr_all_flat nmos_flat_3/VPWR pmos_flat_2/VGND bgr_top_flat_0/sky130_asc_res_xhigh_po_2p85_1_1/Rin
+ bgr_top_flat_0/sky130_asc_res_xhigh_po_2p85_1_2/Rin bgr_top_flat_0/sky130_asc_res_xhigh_po_2p85_1_4/Rin
+ bgr_top_flat_0/sky130_asc_res_xhigh_po_2p85_1_6/Rin bgr_top_flat_0/sky130_asc_res_xhigh_po_2p85_1_7/Rin
+ bgr_top_flat_0/sky130_asc_res_xhigh_po_2p85_1_5/Rin bgr_top_flat_0/sky130_asc_res_xhigh_po_2p85_1_8/Rin
+ bgr_top_flat_0/sky130_asc_res_xhigh_po_2p85_1_0/Rin bgr_top_flat_0/sky130_asc_res_xhigh_po_2p85_1_12/Rin
+ bgr_top_flat_0/sky130_asc_res_xhigh_po_2p85_1_9/Rin bgr_top_flat_0/sky130_asc_res_xhigh_po_2p85_1_10/Rin
+ bgr_top_flat_0/sky130_asc_res_xhigh_po_2p85_1_19/Rin bgr_top_flat_0/sky130_asc_res_xhigh_po_2p85_1_13/Rin
+ bgr_top_flat_0/sky130_asc_res_xhigh_po_2p85_1_18/Rin bgr_top_flat_0/sky130_asc_res_xhigh_po_2p85_1_17/Rin
+ bgr_top_flat_0/sky130_asc_res_xhigh_po_2p85_1_11/Rin bgr_top_flat_0/sky130_asc_res_xhigh_po_2p85_1_21/Rin
+ bgr_top_flat_0/sky130_asc_res_xhigh_po_2p85_1_20/Rin bgr_top_flat_0/sky130_asc_res_xhigh_po_2p85_1_24/Rin
+ bgr_top_flat_0/sky130_asc_res_xhigh_po_2p85_1_23/Rin bgr_top_flat_0/sky130_asc_res_xhigh_po_2p85_1_9/Rout
+ bgr_top_flat_0/sky130_asc_res_xhigh_po_2p85_2_0/Rin bgr_top_flat_0/sky130_asc_res_xhigh_po_2p85_1_16/Rin
+ bgr_top_flat_0/sky130_asc_res_xhigh_po_2p85_1_28/Rin bgr_top_flat_0/sky130_asc_res_xhigh_po_2p85_1_27/Rin
+ bgr_top_flat_0/sky130_asc_res_xhigh_po_2p85_1_29/Rin bgr_top_flat_0/sky130_asc_res_xhigh_po_2p85_2_1/Rin
+ bgr_top_flat_0/sky130_asc_pfet_01v8_lvt_6_1/GATE bgr_top_flat_0/sky130_asc_nfet_01v8_lvt_1_0/DRAIN
+ bgr_top_flat_0/sky130_asc_res_xhigh_po_2p85_1_21/Rout bgr_top_flat_0/sky130_asc_res_xhigh_po_2p85_1_30/Rin
+ bgr_top_flat_0/sky130_asc_res_xhigh_po_2p85_1_26/Rin bgr_top_flat_0/sky130_asc_nfet_01v8_lvt_1_1/GATE
+ bgr_top_flat_0/sky130_asc_cap_mim_m3_1_4/Cout pmos_flat_2/DRAIN nmos_flat_0/VPWR
+ nmos_flat_1/VPWR nmos_flat_2/VPWR VSSA1 pmos_flat_0/VGND nmos_flat_1/GATE pmos_flat_1/VGND
+ pmos_flat_1/DRAIN pmos_flat_3/VGND pmos_flat_3/DRAIN VCCD1 m3_413300_698232# pmos_flat_1/VPWR
+ m3_566500_698354# pmos_flat_2/VPWR pmos_flat_3/VPWR m3_465296_698476# pmos_flat_0/VPWR
+ m3_577256_677954#
X0 VSSA1 VSSA1 pmos_flat_2/DRAIN VSSA1 sky130_fd_pr__nfet_01v8_lvt ad=3.2244e+14p pd=1.90726e+09u as=1.45e+13p ps=1.058e+08u w=5e+06u l=1e+06u
X1 VSSA1 VSSA1 pmos_flat_3/DRAIN VSSA1 sky130_fd_pr__nfet_01v8_lvt ad=0p pd=0u as=1.45e+13p ps=1.058e+08u w=5e+06u l=1e+06u
X2 pmos_flat_3/DRAIN VSSA1 VSSA1 VSSA1 sky130_fd_pr__nfet_01v8_lvt ad=0p pd=0u as=0p ps=0u w=5e+06u l=1e+06u
X3 VCCD1 bgr_top_flat_0/sky130_asc_cap_mim_m3_1_4/Cout pmos_flat_2/DRAIN VCCD1 sky130_fd_pr__pfet_01v8_lvt ad=2.60014e+14p pd=1.87904e+09u as=7.39355e+13p ps=5.3426e+08u w=6.45e+06u l=2e+06u
X4 VSSA1 VSSA1 pmos_flat_1/DRAIN VSSA1 sky130_fd_pr__nfet_01v8_lvt ad=0p pd=0u as=1.45e+13p ps=1.058e+08u w=5e+06u l=1e+06u
X5 bgr_top_flat_0/sky130_asc_cap_mim_m3_1_4/Cout VCCD1 sky130_fd_pr__cap_mim_m3_1 l=2e+06u w=2e+06u
X6 pmos_flat_3/DRAIN VSSA1 VSSA1 VSSA1 sky130_fd_pr__nfet_01v8_lvt ad=0p pd=0u as=0p ps=0u w=5e+06u l=1e+06u
X7 VSSA1 VSSA1 pmos_flat_1/DRAIN VSSA1 sky130_fd_pr__nfet_01v8_lvt ad=0p pd=0u as=0p ps=0u w=5e+06u l=1e+06u
X8 pmos_flat_3/DRAIN bgr_top_flat_0/sky130_asc_cap_mim_m3_1_4/Cout VCCD1 VCCD1 sky130_fd_pr__pfet_01v8_lvt ad=9.8589e+13p pd=6.4222e+08u as=0p ps=0u w=6.45e+06u l=2e+06u
X9 VSSA1 VSSA1 a_560541_357980# VSSA1 sky130_fd_pr__nfet_01v8_lvt ad=0p pd=0u as=1.45e+12p ps=1.058e+07u w=5e+06u l=1e+06u
X10 pmos_flat_3/DRAIN bgr_top_flat_0/sky130_asc_cap_mim_m3_1_4/Cout VCCD1 VCCD1 sky130_fd_pr__pfet_01v8_lvt ad=0p pd=0u as=0p ps=0u w=6.45e+06u l=2e+06u
X11 VCCD1 VCCD1 pmos_flat_3/DRAIN pmos_flat_3/VPWR sky130_fd_pr__pfet_01v8_lvt ad=0p pd=0u as=0p ps=0u w=5e+06u l=1e+06u
X12 a_515903_369632# bgr_top_flat_0/sky130_asc_res_xhigh_po_2p85_1_13/Rin VSSA1 sky130_fd_pr__res_xhigh_po w=2.85e+06u l=7.88e+06u
X13 pmos_flat_3/DRAIN VSSA1 VSSA1 VSSA1 sky130_fd_pr__nfet_01v8_lvt ad=0p pd=0u as=0p ps=0u w=5e+06u l=1e+06u
X14 nmos_flat_1/GATE nmos_flat_1/GATE VSSA1 VSSA1 sky130_fd_pr__nfet_01v8_lvt ad=1.45e+13p pd=1.058e+08u as=0p ps=0u w=5e+06u l=1e+06u
X15 VCCD1 bgr_top_flat_0/sky130_asc_cap_mim_m3_1_4/Cout pmos_flat_3/DRAIN VCCD1 sky130_fd_pr__pfet_01v8_lvt ad=0p pd=0u as=0p ps=0u w=6.45e+06u l=2e+06u
X16 bgr_top_flat_0/sky130_asc_cap_mim_m3_1_4/Cout VCCD1 sky130_fd_pr__cap_mim_m3_1 l=2e+06u w=2e+06u
X17 a_565849_403298# nmos_flat_1/GATE nmos_flat_1/GATE VSSA1 sky130_fd_pr__nfet_01v8_lvt ad=1.45e+12p pd=1.058e+07u as=0p ps=0u w=5e+06u l=1e+06u
X18 bgr_top_flat_0/sky130_asc_cap_mim_m3_1_4/Cout VCCD1 sky130_fd_pr__cap_mim_m3_1 l=2e+06u w=2e+06u
X19 nmos_flat_1/GATE nmos_flat_1/GATE VSSA1 VSSA1 sky130_fd_pr__nfet_01v8_lvt ad=0p pd=0u as=0p ps=0u w=5e+06u l=1e+06u
X20 pmos_flat_1/DRAIN bgr_top_flat_0/sky130_asc_cap_mim_m3_1_4/Cout VCCD1 VCCD1 sky130_fd_pr__pfet_01v8_lvt ad=7.39355e+13p pd=5.3426e+08u as=0p ps=0u w=6.45e+06u l=2e+06u
X21 a_519663_379334# bgr_top_flat_0/sky130_asc_res_xhigh_po_2p85_1_18/Rin VSSA1 sky130_fd_pr__res_xhigh_po w=2.85e+06u l=7.88e+06u
X22 bgr_top_flat_0/sky130_asc_cap_mim_m3_1_4/Cout VCCD1 sky130_fd_pr__cap_mim_m3_1 l=2e+06u w=2e+06u
X23 bgr_top_flat_0/sky130_asc_cap_mim_m3_1_4/Cout VCCD1 sky130_fd_pr__cap_mim_m3_1 l=2e+06u w=2e+06u
X24 pmos_flat_1/DRAIN bgr_top_flat_0/sky130_asc_cap_mim_m3_1_4/Cout VCCD1 VCCD1 sky130_fd_pr__pfet_01v8_lvt ad=0p pd=0u as=0p ps=0u w=6.45e+06u l=2e+06u
X25 VSSA1 VSSA1 bgr_top_flat_0/sky130_asc_res_xhigh_po_2p85_1_21/Rout sky130_fd_pr__pnp_05v5 area=0p
X26 bgr_top_flat_0/sky130_asc_cap_mim_m3_1_4/Cout VCCD1 sky130_fd_pr__cap_mim_m3_1 l=2e+06u w=2e+06u
X27 bgr_top_flat_0/sky130_asc_cap_mim_m3_1_4/Cout VCCD1 sky130_fd_pr__cap_mim_m3_1 l=2e+06u w=2e+06u
X28 bgr_top_flat_0/sky130_asc_cap_mim_m3_1_4/Cout VCCD1 sky130_fd_pr__cap_mim_m3_1 l=2e+06u w=2e+06u
X29 pmos_flat_1/DRAIN bgr_top_flat_0/sky130_asc_cap_mim_m3_1_4/Cout VCCD1 VCCD1 sky130_fd_pr__pfet_01v8_lvt ad=0p pd=0u as=0p ps=0u w=6.45e+06u l=2e+06u
X30 pmos_flat_1/DRAIN bgr_top_flat_0/sky130_asc_cap_mim_m3_1_4/Cout VCCD1 VCCD1 sky130_fd_pr__pfet_01v8_lvt ad=0p pd=0u as=0p ps=0u w=6.45e+06u l=2e+06u
X31 VCCD1 bgr_top_flat_0/sky130_asc_cap_mim_m3_1_4/Cout pmos_flat_2/DRAIN VCCD1 sky130_fd_pr__pfet_01v8_lvt ad=0p pd=0u as=0p ps=0u w=6.45e+06u l=2e+06u
X32 bgr_top_flat_0/sky130_asc_cap_mim_m3_1_4/Cout VCCD1 sky130_fd_pr__cap_mim_m3_1 l=2e+06u w=2e+06u
X33 VCCD1 bgr_top_flat_0/sky130_asc_cap_mim_m3_1_4/Cout pmos_flat_2/DRAIN VCCD1 sky130_fd_pr__pfet_01v8_lvt ad=0p pd=0u as=0p ps=0u w=6.45e+06u l=2e+06u
X34 bgr_top_flat_0/sky130_asc_cap_mim_m3_1_4/Cout VCCD1 sky130_fd_pr__cap_mim_m3_1 l=2e+06u w=2e+06u
X35 VSSA1 VSSA1 bgr_top_flat_0/sky130_asc_res_xhigh_po_2p85_1_21/Rout sky130_fd_pr__pnp_05v5 area=0p
X36 bgr_top_flat_0/sky130_asc_cap_mim_m3_1_4/Cout VCCD1 sky130_fd_pr__cap_mim_m3_1 l=2e+06u w=2e+06u
X37 pmos_flat_2/DRAIN bgr_top_flat_0/sky130_asc_cap_mim_m3_1_4/Cout VCCD1 VCCD1 sky130_fd_pr__pfet_01v8_lvt ad=0p pd=0u as=0p ps=0u w=6.45e+06u l=2e+06u
X38 bgr_top_flat_0/sky130_asc_cap_mim_m3_1_4/Cout VCCD1 sky130_fd_pr__cap_mim_m3_1 l=2e+06u w=2e+06u
X39 VCCD1 VCCD1 pmos_flat_1/DRAIN pmos_flat_1/VPWR sky130_fd_pr__pfet_01v8_lvt ad=0p pd=0u as=0p ps=0u w=5e+06u l=1e+06u
X40 pmos_flat_1/DRAIN VCCD1 VCCD1 pmos_flat_1/VPWR sky130_fd_pr__pfet_01v8_lvt ad=0p pd=0u as=0p ps=0u w=5e+06u l=1e+06u
X41 bgr_top_flat_0/sky130_asc_cap_mim_m3_1_4/Cout VCCD1 sky130_fd_pr__cap_mim_m3_1 l=2e+06u w=2e+06u
X42 a_519663_388644# bgr_top_flat_0/sky130_asc_res_xhigh_po_2p85_1_24/Rin VSSA1 sky130_fd_pr__res_xhigh_po w=2.85e+06u l=7.88e+06u
X43 VCCD1 bgr_top_flat_0/sky130_asc_cap_mim_m3_1_4/Cout pmos_flat_3/DRAIN VCCD1 sky130_fd_pr__pfet_01v8_lvt ad=0p pd=0u as=0p ps=0u w=6.45e+06u l=2e+06u
X44 VCCD1 bgr_top_flat_0/sky130_asc_cap_mim_m3_1_4/Cout bgr_top_flat_0/sky130_asc_nfet_01v8_lvt_1_1/GATE VCCD1 sky130_fd_pr__pfet_01v8_lvt ad=0p pd=0u as=1.30935e+13p ps=9.436e+07u w=6.45e+06u l=2e+06u
X45 VCCD1 VCCD1 pmos_flat_1/DRAIN pmos_flat_1/VPWR sky130_fd_pr__pfet_01v8_lvt ad=0p pd=0u as=0p ps=0u w=5e+06u l=1e+06u
X46 VCCD1 bgr_top_flat_0/sky130_asc_cap_mim_m3_1_4/Cout pmos_flat_3/DRAIN VCCD1 sky130_fd_pr__pfet_01v8_lvt ad=0p pd=0u as=0p ps=0u w=6.45e+06u l=2e+06u
X47 VSSA1 pmos_flat_3/DRAIN sky130_fd_pr__cap_mim_m3_1 l=2e+06u w=2e+06u
X48 bgr_top_flat_0/sky130_asc_nfet_01v8_lvt_1_1/GATE bgr_top_flat_0/sky130_asc_cap_mim_m3_1_4/Cout VCCD1 VCCD1 sky130_fd_pr__pfet_01v8_lvt ad=0p pd=0u as=0p ps=0u w=6.45e+06u l=2e+06u
X49 pmos_flat_3/DRAIN bgr_top_flat_0/sky130_asc_cap_mim_m3_1_4/Cout VCCD1 VCCD1 sky130_fd_pr__pfet_01v8_lvt ad=0p pd=0u as=0p ps=0u w=6.45e+06u l=2e+06u
X50 bgr_top_flat_0/sky130_asc_cap_mim_m3_1_4/Cout VCCD1 sky130_fd_pr__cap_mim_m3_1 l=2e+06u w=2e+06u
X51 VSSA1 pmos_flat_3/DRAIN sky130_fd_pr__cap_mim_m3_1 l=2e+06u w=2e+06u
X52 bgr_top_flat_0/sky130_asc_nfet_01v8_lvt_1_1/GATE bgr_top_flat_0/sky130_asc_cap_mim_m3_1_4/Cout VCCD1 VCCD1 sky130_fd_pr__pfet_01v8_lvt ad=0p pd=0u as=0p ps=0u w=6.45e+06u l=2e+06u
X53 bgr_top_flat_0/sky130_asc_cap_mim_m3_1_4/Cout VCCD1 sky130_fd_pr__cap_mim_m3_1 l=2e+06u w=2e+06u
X54 VCCD1 VCCD1 nmos_flat_1/GATE pmos_flat_0/VPWR sky130_fd_pr__pfet_01v8_lvt ad=0p pd=0u as=1.595e+13p ps=1.1638e+08u w=5e+06u l=1e+06u
X55 bgr_top_flat_0/sky130_asc_cap_mim_m3_1_4/Cout VCCD1 sky130_fd_pr__cap_mim_m3_1 l=2e+06u w=2e+06u
X56 VCCD1 bgr_top_flat_0/sky130_asc_cap_mim_m3_1_4/Cout bgr_top_flat_0/sky130_asc_nfet_01v8_lvt_1_1/GATE VCCD1 sky130_fd_pr__pfet_01v8_lvt ad=0p pd=0u as=0p ps=0u w=6.45e+06u l=2e+06u
X57 bgr_top_flat_0/sky130_asc_cap_mim_m3_1_4/Cout VCCD1 sky130_fd_pr__cap_mim_m3_1 l=2e+06u w=2e+06u
X58 VCCD1 VCCD1 pmos_flat_2/DRAIN pmos_flat_2/VPWR sky130_fd_pr__pfet_01v8_lvt ad=0p pd=0u as=0p ps=0u w=5e+06u l=1e+06u
X59 a_493343_391682# bgr_top_flat_0/sky130_asc_res_xhigh_po_2p85_1_26/Rin VSSA1 sky130_fd_pr__res_xhigh_po w=2.85e+06u l=7.88e+06u
X60 VCCD1 VCCD1 nmos_flat_1/GATE pmos_flat_0/VPWR sky130_fd_pr__pfet_01v8_lvt ad=0p pd=0u as=0p ps=0u w=5e+06u l=1e+06u
X61 VCCD1 bgr_top_flat_0/sky130_asc_cap_mim_m3_1_4/Cout pmos_flat_1/DRAIN VCCD1 sky130_fd_pr__pfet_01v8_lvt ad=0p pd=0u as=0p ps=0u w=6.45e+06u l=2e+06u
X62 VSSA1 pmos_flat_3/DRAIN sky130_fd_pr__cap_mim_m3_1 l=2e+06u w=2e+06u
X63 VSSA1 pmos_flat_3/DRAIN sky130_fd_pr__cap_mim_m3_1 l=2e+06u w=2e+06u
X64 VCCD1 bgr_top_flat_0/sky130_asc_cap_mim_m3_1_4/Cout pmos_flat_1/DRAIN VCCD1 sky130_fd_pr__pfet_01v8_lvt ad=0p pd=0u as=0p ps=0u w=6.45e+06u l=2e+06u
X65 bgr_top_flat_0/sky130_asc_cap_mim_m3_1_4/Cout VCCD1 sky130_fd_pr__cap_mim_m3_1 l=2e+06u w=2e+06u
X66 VSSA1 pmos_flat_3/DRAIN sky130_fd_pr__cap_mim_m3_1 l=2e+06u w=2e+06u
X67 nmos_flat_1/GATE VCCD1 VCCD1 pmos_flat_0/VPWR sky130_fd_pr__pfet_01v8_lvt ad=0p pd=0u as=0p ps=0u w=5e+06u l=1e+06u
X68 pmos_flat_1/DRAIN bgr_top_flat_0/sky130_asc_cap_mim_m3_1_4/Cout VCCD1 VCCD1 sky130_fd_pr__pfet_01v8_lvt ad=0p pd=0u as=0p ps=0u w=6.45e+06u l=2e+06u
X69 bgr_top_flat_0/sky130_asc_cap_mim_m3_1_4/Cout VCCD1 sky130_fd_pr__cap_mim_m3_1 l=2e+06u w=2e+06u
X70 pmos_flat_2/DRAIN VSSA1 VSSA1 VSSA1 sky130_fd_pr__nfet_01v8_lvt ad=0p pd=0u as=0p ps=0u w=5e+06u l=1e+06u
X71 pmos_flat_2/DRAIN VSSA1 VSSA1 VSSA1 sky130_fd_pr__nfet_01v8_lvt ad=0p pd=0u as=0p ps=0u w=5e+06u l=1e+06u
X72 pmos_flat_1/DRAIN bgr_top_flat_0/sky130_asc_cap_mim_m3_1_4/Cout VCCD1 VCCD1 sky130_fd_pr__pfet_01v8_lvt ad=0p pd=0u as=0p ps=0u w=6.45e+06u l=2e+06u
X73 VSSA1 VSSA1 pmos_flat_2/DRAIN VSSA1 sky130_fd_pr__nfet_01v8_lvt ad=0p pd=0u as=0p ps=0u w=5e+06u l=1e+06u
X74 pmos_flat_1/DRAIN bgr_top_flat_0/sky130_asc_cap_mim_m3_1_4/Cout VCCD1 VCCD1 sky130_fd_pr__pfet_01v8_lvt ad=0p pd=0u as=0p ps=0u w=6.45e+06u l=2e+06u
X75 pmos_flat_2/DRAIN VSSA1 VSSA1 VSSA1 sky130_fd_pr__nfet_01v8_lvt ad=0p pd=0u as=0p ps=0u w=5e+06u l=1e+06u
X76 bgr_top_flat_0/sky130_asc_cap_mim_m3_1_4/Cout VCCD1 sky130_fd_pr__cap_mim_m3_1 l=2e+06u w=2e+06u
X77 VSSA1 pmos_flat_3/DRAIN sky130_fd_pr__cap_mim_m3_1 l=2e+06u w=2e+06u
X78 VCCD1 bgr_top_flat_0/sky130_asc_cap_mim_m3_1_4/Cout pmos_flat_1/DRAIN VCCD1 sky130_fd_pr__pfet_01v8_lvt ad=0p pd=0u as=0p ps=0u w=6.45e+06u l=2e+06u
X79 VSSA1 pmos_flat_3/DRAIN sky130_fd_pr__cap_mim_m3_1 l=2e+06u w=2e+06u
X80 a_530943_368750# pmos_flat_1/DRAIN VSSA1 sky130_fd_pr__res_xhigh_po w=2.85e+06u l=7.88e+06u
X81 VSSA1 pmos_flat_3/DRAIN sky130_fd_pr__cap_mim_m3_1 l=2e+06u w=2e+06u
X82 bgr_top_flat_0/sky130_asc_cap_mim_m3_1_4/Cout VCCD1 sky130_fd_pr__cap_mim_m3_1 l=2e+06u w=2e+06u
X83 VSSA1 VSSA1 pmos_flat_3/DRAIN VSSA1 sky130_fd_pr__nfet_01v8_lvt ad=0p pd=0u as=0p ps=0u w=5e+06u l=1e+06u
X84 VCCD1 VCCD1 pmos_flat_3/DRAIN pmos_flat_3/VPWR sky130_fd_pr__pfet_01v8_lvt ad=0p pd=0u as=0p ps=0u w=5e+06u l=1e+06u
X85 a_515903_390114# bgr_top_flat_0/sky130_asc_res_xhigh_po_2p85_1_10/Rin VSSA1 sky130_fd_pr__res_xhigh_po w=2.85e+06u l=7.88e+06u
X86 pmos_flat_2/DRAIN bgr_top_flat_0/sky130_asc_cap_mim_m3_1_4/Cout VCCD1 VCCD1 sky130_fd_pr__pfet_01v8_lvt ad=0p pd=0u as=0p ps=0u w=6.45e+06u l=2e+06u
X87 pmos_flat_1/DRAIN VSSA1 VSSA1 VSSA1 sky130_fd_pr__nfet_01v8_lvt ad=0p pd=0u as=0p ps=0u w=5e+06u l=1e+06u
X88 pmos_flat_3/DRAIN VCCD1 VCCD1 pmos_flat_3/VPWR sky130_fd_pr__pfet_01v8_lvt ad=0p pd=0u as=0p ps=0u w=5e+06u l=1e+06u
X89 a_519663_385312# bgr_top_flat_0/sky130_asc_res_xhigh_po_2p85_1_9/Rin VSSA1 sky130_fd_pr__res_xhigh_po w=2.85e+06u l=7.88e+06u
X90 VSSA1 nmos_flat_1/GATE nmos_flat_1/GATE VSSA1 sky130_fd_pr__nfet_01v8_lvt ad=0p pd=0u as=0p ps=0u w=5e+06u l=1e+06u
X91 VSSA1 VSSA1 pmos_flat_1/DRAIN VSSA1 sky130_fd_pr__nfet_01v8_lvt ad=0p pd=0u as=0p ps=0u w=5e+06u l=1e+06u
X92 bgr_top_flat_0/sky130_asc_cap_mim_m3_1_4/Cout nmos_flat_1/GATE VSSA1 VSSA1 sky130_fd_pr__nfet_01v8_lvt ad=1.16e+13p pd=8.58e+07u as=0p ps=0u w=4e+06u l=2e+06u
X93 VCCD1 bgr_top_flat_0/sky130_asc_cap_mim_m3_1_4/Cout bgr_top_flat_0/sky130_asc_nfet_01v8_lvt_1_1/GATE VCCD1 sky130_fd_pr__pfet_01v8_lvt ad=0p pd=0u as=0p ps=0u w=6.45e+06u l=2e+06u
X94 VSSA1 VSSA1 bgr_top_flat_0/sky130_asc_res_xhigh_po_2p85_1_21/Rout sky130_fd_pr__pnp_05v5 area=0p
X95 VCCD1 VCCD1 pmos_flat_3/DRAIN pmos_flat_3/VPWR sky130_fd_pr__pfet_01v8_lvt ad=0p pd=0u as=0p ps=0u w=5e+06u l=1e+06u
X96 bgr_top_flat_0/sky130_asc_cap_mim_m3_1_4/Cout nmos_flat_1/GATE VSSA1 VSSA1 sky130_fd_pr__nfet_01v8_lvt ad=0p pd=0u as=0p ps=0u w=4e+06u l=2e+06u
X97 VSSA1 nmos_flat_1/GATE bgr_top_flat_0/sky130_asc_cap_mim_m3_1_4/Cout VSSA1 sky130_fd_pr__nfet_01v8_lvt ad=0p pd=0u as=0p ps=0u w=4e+06u l=2e+06u
X98 VSSA1 VSSA1 bgr_top_flat_0/sky130_asc_res_xhigh_po_2p85_1_21/Rout sky130_fd_pr__pnp_05v5 area=0p
X99 VSSA1 pmos_flat_3/DRAIN sky130_fd_pr__cap_mim_m3_1 l=2e+06u w=2e+06u
X100 pmos_flat_3/DRAIN bgr_top_flat_0/sky130_asc_cap_mim_m3_1_4/Cout VCCD1 VCCD1 sky130_fd_pr__pfet_01v8_lvt ad=0p pd=0u as=0p ps=0u w=6.45e+06u l=2e+06u
X101 bgr_top_flat_0/sky130_asc_cap_mim_m3_1_4/Cout VCCD1 sky130_fd_pr__cap_mim_m3_1 l=2e+06u w=2e+06u
X102 VSSA1 pmos_flat_3/DRAIN sky130_fd_pr__cap_mim_m3_1 l=2e+06u w=2e+06u
X103 VSSA1 pmos_flat_3/DRAIN sky130_fd_pr__cap_mim_m3_1 l=2e+06u w=2e+06u
X104 pmos_flat_1/DRAIN bgr_top_flat_0/sky130_asc_cap_mim_m3_1_4/Cout VCCD1 VCCD1 sky130_fd_pr__pfet_01v8_lvt ad=0p pd=0u as=0p ps=0u w=6.45e+06u l=2e+06u
X105 bgr_top_flat_0/sky130_asc_cap_mim_m3_1_4/Cout pmos_flat_3/DRAIN bgr_top_flat_0/sky130_asc_nfet_01v8_lvt_1_0/DRAIN VSSA1 sky130_fd_pr__nfet_01v8_lvt ad=0p pd=0u as=1.276e+13p ps=9.438e+07u w=4e+06u l=2e+06u
X106 pmos_flat_1/DRAIN bgr_top_flat_0/sky130_asc_cap_mim_m3_1_4/Cout VCCD1 VCCD1 sky130_fd_pr__pfet_01v8_lvt ad=0p pd=0u as=0p ps=0u w=6.45e+06u l=2e+06u
X107 VCCD1 bgr_top_flat_0/sky130_asc_cap_mim_m3_1_4/Cout pmos_flat_1/DRAIN VCCD1 sky130_fd_pr__pfet_01v8_lvt ad=0p pd=0u as=0p ps=0u w=6.45e+06u l=2e+06u
X108 VSSA1 pmos_flat_3/DRAIN sky130_fd_pr__cap_mim_m3_1 l=2e+06u w=2e+06u
X109 VSSA1 pmos_flat_3/DRAIN sky130_fd_pr__cap_mim_m3_1 l=2e+06u w=2e+06u
X110 a_530943_363262# bgr_top_flat_0/sky130_asc_res_xhigh_po_2p85_1_5/Rin VSSA1 sky130_fd_pr__res_xhigh_po w=2.85e+06u l=7.88e+06u
X111 a_504623_390016# bgr_top_flat_0/sky130_asc_res_xhigh_po_2p85_2_1/Rin VSSA1 sky130_fd_pr__res_xhigh_po w=2.85e+06u l=7.88e+06u
X112 VSSA1 pmos_flat_3/DRAIN sky130_fd_pr__cap_mim_m3_1 l=2e+06u w=2e+06u
X113 VSSA1 pmos_flat_3/DRAIN sky130_fd_pr__cap_mim_m3_1 l=2e+06u w=2e+06u
X114 pmos_flat_1/DRAIN VCCD1 VCCD1 pmos_flat_1/VPWR sky130_fd_pr__pfet_01v8_lvt ad=0p pd=0u as=0p ps=0u w=5e+06u l=1e+06u
X115 a_504623_398836# bgr_top_flat_0/sky130_asc_res_xhigh_po_2p85_1_27/Rin VSSA1 sky130_fd_pr__res_xhigh_po w=2.85e+06u l=7.88e+06u
X116 VSSA1 pmos_flat_3/DRAIN sky130_fd_pr__cap_mim_m3_1 l=2e+06u w=2e+06u
X117 bgr_top_flat_0/sky130_asc_cap_mim_m3_1_4/Cout VCCD1 sky130_fd_pr__cap_mim_m3_1 l=2e+06u w=2e+06u
X118 a_534703_367966# bgr_top_flat_0/sky130_asc_res_xhigh_po_2p85_1_4/Rin VSSA1 sky130_fd_pr__res_xhigh_po w=2.85e+06u l=7.88e+06u
X119 VCCD1 bgr_top_flat_0/sky130_asc_pfet_01v8_lvt_6_1/GATE bgr_top_flat_0/sky130_asc_cap_mim_m3_1_4/Cout VCCD1 sky130_fd_pr__pfet_01v8_lvt ad=0p pd=0u as=7.482e+12p ps=5.392e+07u w=6.45e+06u l=2e+06u
X120 pmos_flat_1/DRAIN bgr_top_flat_0/sky130_asc_cap_mim_m3_1_4/Cout VCCD1 VCCD1 sky130_fd_pr__pfet_01v8_lvt ad=0p pd=0u as=0p ps=0u w=6.45e+06u l=2e+06u
X121 VSSA1 pmos_flat_3/DRAIN sky130_fd_pr__cap_mim_m3_1 l=2e+06u w=2e+06u
X122 pmos_flat_1/DRAIN bgr_top_flat_0/sky130_asc_cap_mim_m3_1_4/Cout VCCD1 VCCD1 sky130_fd_pr__pfet_01v8_lvt ad=0p pd=0u as=0p ps=0u w=6.45e+06u l=2e+06u
X123 VCCD1 bgr_top_flat_0/sky130_asc_cap_mim_m3_1_4/Cout pmos_flat_2/DRAIN VCCD1 sky130_fd_pr__pfet_01v8_lvt ad=0p pd=0u as=0p ps=0u w=6.45e+06u l=2e+06u
X124 VCCD1 bgr_top_flat_0/sky130_asc_cap_mim_m3_1_4/Cout pmos_flat_2/DRAIN VCCD1 sky130_fd_pr__pfet_01v8_lvt ad=0p pd=0u as=0p ps=0u w=6.45e+06u l=2e+06u
X125 a_519663_364144# pmos_flat_2/DRAIN VSSA1 sky130_fd_pr__res_xhigh_po w=2.85e+06u l=7.88e+06u
X126 VSSA1 pmos_flat_3/DRAIN sky130_fd_pr__cap_mim_m3_1 l=2e+06u w=2e+06u
X127 pmos_flat_2/DRAIN bgr_top_flat_0/sky130_asc_cap_mim_m3_1_4/Cout VCCD1 VCCD1 sky130_fd_pr__pfet_01v8_lvt ad=0p pd=0u as=0p ps=0u w=6.45e+06u l=2e+06u
X128 bgr_top_flat_0/sky130_asc_cap_mim_m3_1_4/Cout VCCD1 sky130_fd_pr__cap_mim_m3_1 l=2e+06u w=2e+06u
X129 VSSA1 pmos_flat_3/DRAIN sky130_fd_pr__cap_mim_m3_1 l=2e+06u w=2e+06u
X130 bgr_top_flat_0/sky130_asc_cap_mim_m3_1_4/Cout VCCD1 sky130_fd_pr__cap_mim_m3_1 l=2e+06u w=2e+06u
X131 VCCD1 VCCD1 nmos_flat_1/GATE pmos_flat_0/VPWR sky130_fd_pr__pfet_01v8_lvt ad=0p pd=0u as=0p ps=0u w=5e+06u l=1e+06u
X132 VCCD1 bgr_top_flat_0/sky130_asc_cap_mim_m3_1_4/Cout pmos_flat_3/DRAIN VCCD1 sky130_fd_pr__pfet_01v8_lvt ad=0p pd=0u as=0p ps=0u w=6.45e+06u l=2e+06u
X133 VCCD1 bgr_top_flat_0/sky130_asc_cap_mim_m3_1_4/Cout pmos_flat_3/DRAIN VCCD1 sky130_fd_pr__pfet_01v8_lvt ad=0p pd=0u as=0p ps=0u w=6.45e+06u l=2e+06u
X134 a_504623_392773# bgr_top_flat_0/sky130_asc_res_xhigh_po_2p85_2_1/Rin VSSA1 sky130_fd_pr__res_xhigh_po w=2.85e+06u l=1.075e+07u
X135 VCCD1 bgr_top_flat_0/sky130_asc_cap_mim_m3_1_4/Cout pmos_flat_1/DRAIN VCCD1 sky130_fd_pr__pfet_01v8_lvt ad=0p pd=0u as=0p ps=0u w=6.45e+06u l=2e+06u
X136 pmos_flat_3/DRAIN bgr_top_flat_0/sky130_asc_cap_mim_m3_1_4/Cout VCCD1 VCCD1 sky130_fd_pr__pfet_01v8_lvt ad=0p pd=0u as=0p ps=0u w=6.45e+06u l=2e+06u
X137 VCCD1 VCCD1 pmos_flat_2/DRAIN pmos_flat_2/VPWR sky130_fd_pr__pfet_01v8_lvt ad=0p pd=0u as=0p ps=0u w=5e+06u l=1e+06u
X138 bgr_top_flat_0/sky130_asc_cap_mim_m3_1_4/Cout VCCD1 sky130_fd_pr__cap_mim_m3_1 l=2e+06u w=2e+06u
X139 VSSA1 pmos_flat_3/DRAIN sky130_fd_pr__cap_mim_m3_1 l=2e+06u w=2e+06u
X140 VSSA1 pmos_flat_3/DRAIN sky130_fd_pr__cap_mim_m3_1 l=2e+06u w=2e+06u
X141 pmos_flat_2/DRAIN VSSA1 VSSA1 VSSA1 sky130_fd_pr__nfet_01v8_lvt ad=0p pd=0u as=0p ps=0u w=5e+06u l=1e+06u
X142 a_512143_393250# bgr_top_flat_0/sky130_asc_res_xhigh_po_2p85_1_29/Rin VSSA1 sky130_fd_pr__res_xhigh_po w=2.85e+06u l=7.88e+06u
X143 a_504623_396092# bgr_top_flat_0/sky130_asc_res_xhigh_po_2p85_1_28/Rin VSSA1 sky130_fd_pr__res_xhigh_po w=2.85e+06u l=7.88e+06u
X144 bgr_top_flat_0/sky130_asc_cap_mim_m3_1_4/Cout VCCD1 sky130_fd_pr__cap_mim_m3_1 l=2e+06u w=2e+06u
X145 bgr_top_flat_0/sky130_asc_cap_mim_m3_1_4/Cout VCCD1 sky130_fd_pr__cap_mim_m3_1 l=2e+06u w=2e+06u
X146 pmos_flat_2/DRAIN VSSA1 VSSA1 VSSA1 sky130_fd_pr__nfet_01v8_lvt ad=0p pd=0u as=0p ps=0u w=5e+06u l=1e+06u
X147 a_534703_365222# VSSA1 VSSA1 sky130_fd_pr__res_xhigh_po w=2.85e+06u l=7.88e+06u
X148 bgr_top_flat_0/sky130_asc_cap_mim_m3_1_4/Cout VCCD1 sky130_fd_pr__cap_mim_m3_1 l=2e+06u w=2e+06u
X149 pmos_flat_1/DRAIN bgr_top_flat_0/sky130_asc_cap_mim_m3_1_4/Cout VCCD1 VCCD1 sky130_fd_pr__pfet_01v8_lvt ad=0p pd=0u as=0p ps=0u w=6.45e+06u l=2e+06u
X150 pmos_flat_3/DRAIN VCCD1 VCCD1 pmos_flat_3/VPWR sky130_fd_pr__pfet_01v8_lvt ad=0p pd=0u as=0p ps=0u w=5e+06u l=1e+06u
X151 a_519663_382568# bgr_top_flat_0/sky130_asc_res_xhigh_po_2p85_1_11/Rin VSSA1 sky130_fd_pr__res_xhigh_po w=2.85e+06u l=7.88e+06u
X152 bgr_top_flat_0/sky130_asc_cap_mim_m3_1_4/Cout bgr_top_flat_0/sky130_asc_pfet_01v8_lvt_6_1/GATE VCCD1 VCCD1 sky130_fd_pr__pfet_01v8_lvt ad=0p pd=0u as=0p ps=0u w=6.45e+06u l=2e+06u
X153 VSSA1 VSSA1 pmos_flat_3/DRAIN VSSA1 sky130_fd_pr__nfet_01v8_lvt ad=0p pd=0u as=0p ps=0u w=5e+06u l=1e+06u
X154 VCCD1 bgr_top_flat_0/sky130_asc_cap_mim_m3_1_4/Cout pmos_flat_1/DRAIN VCCD1 sky130_fd_pr__pfet_01v8_lvt ad=0p pd=0u as=0p ps=0u w=6.45e+06u l=2e+06u
X155 pmos_flat_3/DRAIN VSSA1 VSSA1 VSSA1 sky130_fd_pr__nfet_01v8_lvt ad=0p pd=0u as=0p ps=0u w=5e+06u l=1e+06u
X156 VCCD1 bgr_top_flat_0/sky130_asc_pfet_01v8_lvt_6_1/GATE bgr_top_flat_0/sky130_asc_cap_mim_m3_1_4/Cout VCCD1 sky130_fd_pr__pfet_01v8_lvt ad=0p pd=0u as=0p ps=0u w=6.45e+06u l=2e+06u
X157 VSSA1 pmos_flat_3/DRAIN sky130_fd_pr__cap_mim_m3_1 l=2e+06u w=2e+06u
X158 VSSA1 pmos_flat_3/DRAIN sky130_fd_pr__cap_mim_m3_1 l=2e+06u w=2e+06u
X159 pmos_flat_1/DRAIN VSSA1 VSSA1 VSSA1 sky130_fd_pr__nfet_01v8_lvt ad=0p pd=0u as=0p ps=0u w=5e+06u l=1e+06u
X160 bgr_top_flat_0/sky130_asc_cap_mim_m3_1_4/Cout VCCD1 sky130_fd_pr__cap_mim_m3_1 l=2e+06u w=2e+06u
X161 VSSA1 VSSA1 pmos_flat_3/DRAIN VSSA1 sky130_fd_pr__nfet_01v8_lvt ad=0p pd=0u as=0p ps=0u w=5e+06u l=1e+06u
X162 bgr_top_flat_0/sky130_asc_cap_mim_m3_1_4/Cout VCCD1 sky130_fd_pr__cap_mim_m3_1 l=2e+06u w=2e+06u
X163 VSSA1 pmos_flat_3/DRAIN sky130_fd_pr__cap_mim_m3_1 l=2e+06u w=2e+06u
X164 pmos_flat_1/DRAIN VSSA1 VSSA1 VSSA1 sky130_fd_pr__nfet_01v8_lvt ad=0p pd=0u as=0p ps=0u w=5e+06u l=1e+06u
X165 VCCD1 bgr_top_flat_0/sky130_asc_cap_mim_m3_1_4/Cout pmos_flat_2/DRAIN VCCD1 sky130_fd_pr__pfet_01v8_lvt ad=0p pd=0u as=0p ps=0u w=6.45e+06u l=2e+06u
X166 bgr_top_flat_0/sky130_asc_cap_mim_m3_1_4/Cout VCCD1 sky130_fd_pr__cap_mim_m3_1 l=2e+06u w=2e+06u
X167 VSSA1 nmos_flat_1/GATE nmos_flat_1/GATE VSSA1 sky130_fd_pr__nfet_01v8_lvt ad=0p pd=0u as=0p ps=0u w=5e+06u l=1e+06u
X168 bgr_top_flat_0/sky130_asc_cap_mim_m3_1_4/Cout VCCD1 sky130_fd_pr__cap_mim_m3_1 l=2e+06u w=2e+06u
X169 a_515903_375120# bgr_top_flat_0/sky130_asc_res_xhigh_po_2p85_1_17/Rin VSSA1 sky130_fd_pr__res_xhigh_po w=2.85e+06u l=7.88e+06u
X170 VSSA1 VSSA1 bgr_top_flat_0/sky130_asc_res_xhigh_po_2p85_1_21/Rout sky130_fd_pr__pnp_05v5 area=0p
X171 VSSA1 nmos_flat_1/GATE nmos_flat_1/GATE VSSA1 sky130_fd_pr__nfet_01v8_lvt ad=0p pd=0u as=0p ps=0u w=5e+06u l=1e+06u
X172 pmos_flat_2/DRAIN bgr_top_flat_0/sky130_asc_cap_mim_m3_1_4/Cout VCCD1 VCCD1 sky130_fd_pr__pfet_01v8_lvt ad=0p pd=0u as=0p ps=0u w=6.45e+06u l=2e+06u
X173 bgr_top_flat_0/sky130_asc_cap_mim_m3_1_4/Cout VCCD1 sky130_fd_pr__cap_mim_m3_1 l=2e+06u w=2e+06u
X174 VSSA1 pmos_flat_3/DRAIN sky130_fd_pr__cap_mim_m3_1 l=2e+06u w=2e+06u
X175 VCCD1 bgr_top_flat_0/sky130_asc_cap_mim_m3_1_4/Cout pmos_flat_3/DRAIN VCCD1 sky130_fd_pr__pfet_01v8_lvt ad=0p pd=0u as=0p ps=0u w=6.45e+06u l=2e+06u
X176 bgr_top_flat_0/sky130_asc_cap_mim_m3_1_4/Cout VCCD1 sky130_fd_pr__cap_mim_m3_1 l=2e+06u w=2e+06u
X177 VCCD1 bgr_top_flat_0/sky130_asc_cap_mim_m3_1_4/Cout pmos_flat_1/DRAIN VCCD1 sky130_fd_pr__pfet_01v8_lvt ad=0p pd=0u as=0p ps=0u w=6.45e+06u l=2e+06u
X178 pmos_flat_3/DRAIN bgr_top_flat_0/sky130_asc_cap_mim_m3_1_4/Cout VCCD1 VCCD1 sky130_fd_pr__pfet_01v8_lvt ad=0p pd=0u as=0p ps=0u w=6.45e+06u l=2e+06u
X179 VCCD1 bgr_top_flat_0/sky130_asc_cap_mim_m3_1_4/Cout pmos_flat_1/DRAIN VCCD1 sky130_fd_pr__pfet_01v8_lvt ad=0p pd=0u as=0p ps=0u w=6.45e+06u l=2e+06u
X180 pmos_flat_3/DRAIN bgr_top_flat_0/sky130_asc_cap_mim_m3_1_4/Cout VCCD1 VCCD1 sky130_fd_pr__pfet_01v8_lvt ad=0p pd=0u as=0p ps=0u w=6.45e+06u l=2e+06u
X181 a_534703_362478# bgr_top_flat_0/sky130_asc_res_xhigh_po_2p85_1_1/Rin VSSA1 sky130_fd_pr__res_xhigh_po w=2.85e+06u l=7.88e+06u
X182 VSSA1 VSSA1 bgr_top_flat_0/sky130_asc_res_xhigh_po_2p85_1_21/Rout sky130_fd_pr__pnp_05v5 area=0p
X183 pmos_flat_1/DRAIN bgr_top_flat_0/sky130_asc_cap_mim_m3_1_4/Cout VCCD1 VCCD1 sky130_fd_pr__pfet_01v8_lvt ad=0p pd=0u as=0p ps=0u w=6.45e+06u l=2e+06u
X184 bgr_top_flat_0/sky130_asc_cap_mim_m3_1_4/Cout VCCD1 sky130_fd_pr__cap_mim_m3_1 l=2e+06u w=2e+06u
X185 bgr_top_flat_0/sky130_asc_pfet_01v8_lvt_6_1/GATE pmos_flat_2/DRAIN bgr_top_flat_0/sky130_asc_nfet_01v8_lvt_1_0/DRAIN VSSA1 sky130_fd_pr__nfet_01v8_lvt ad=5.8e+12p pd=4.29e+07u as=0p ps=0u w=4e+06u l=2e+06u
X186 VCCD1 VCCD1 pmos_flat_3/DRAIN VCCD1 sky130_fd_pr__pfet_01v8_lvt ad=0p pd=0u as=0p ps=0u w=6.45e+06u l=2e+06u
X187 a_527183_368652# bgr_top_flat_0/sky130_asc_res_xhigh_po_2p85_1_8/Rin VSSA1 sky130_fd_pr__res_xhigh_po w=2.85e+06u l=7.88e+06u
X188 VSSA1 VSSA1 bgr_top_flat_0/sky130_asc_res_xhigh_po_2p85_1_21/Rout sky130_fd_pr__pnp_05v5 area=0p
X189 pmos_flat_1/DRAIN VCCD1 VCCD1 pmos_flat_1/VPWR sky130_fd_pr__pfet_01v8_lvt ad=0p pd=0u as=0p ps=0u w=5e+06u l=1e+06u
X190 VSSA1 VSSA1 bgr_top_flat_0/sky130_asc_res_xhigh_po_2p85_1_21/Rout sky130_fd_pr__pnp_05v5 area=0p
X191 a_519663_385312# bgr_top_flat_0/sky130_asc_res_xhigh_po_2p85_1_9/Rout VSSA1 sky130_fd_pr__res_xhigh_po w=2.85e+06u l=7.88e+06u
X192 VSSA1 VSSA1 bgr_top_flat_0/sky130_asc_res_xhigh_po_2p85_1_21/Rout sky130_fd_pr__pnp_05v5 area=0p
X193 VCCD1 bgr_top_flat_0/sky130_asc_cap_mim_m3_1_4/Cout pmos_flat_1/DRAIN VCCD1 sky130_fd_pr__pfet_01v8_lvt ad=0p pd=0u as=0p ps=0u w=6.45e+06u l=2e+06u
X194 pmos_flat_2/DRAIN bgr_top_flat_0/sky130_asc_cap_mim_m3_1_4/Cout VCCD1 VCCD1 sky130_fd_pr__pfet_01v8_lvt ad=0p pd=0u as=0p ps=0u w=6.45e+06u l=2e+06u
X195 VSSA1 VSSA1 bgr_top_flat_0/sky130_asc_res_xhigh_po_2p85_1_21/Rout sky130_fd_pr__pnp_05v5 area=0p
X196 bgr_top_flat_0/sky130_asc_cap_mim_m3_1_4/Cout VCCD1 sky130_fd_pr__cap_mim_m3_1 l=2e+06u w=2e+06u
X197 VCCD1 bgr_top_flat_0/sky130_asc_cap_mim_m3_1_4/Cout pmos_flat_2/DRAIN VCCD1 sky130_fd_pr__pfet_01v8_lvt ad=0p pd=0u as=0p ps=0u w=6.45e+06u l=2e+06u
X198 VSSA1 pmos_flat_3/DRAIN sky130_fd_pr__cap_mim_m3_1 l=2e+06u w=2e+06u
X199 nmos_flat_1/GATE VCCD1 VCCD1 pmos_flat_0/VPWR sky130_fd_pr__pfet_01v8_lvt ad=0p pd=0u as=0p ps=0u w=5e+06u l=1e+06u
X200 bgr_top_flat_0/sky130_asc_nfet_01v8_lvt_1_0/DRAIN bgr_top_flat_0/sky130_asc_nfet_01v8_lvt_1_1/GATE VSSA1 VSSA1 sky130_fd_pr__nfet_01v8_lvt ad=0p pd=0u as=0p ps=0u w=4e+06u l=2e+06u
X201 VSSA1 pmos_flat_3/DRAIN sky130_fd_pr__cap_mim_m3_1 l=2e+06u w=2e+06u
X202 VSSA1 pmos_flat_3/DRAIN sky130_fd_pr__cap_mim_m3_1 l=2e+06u w=2e+06u
X203 pmos_flat_2/DRAIN VCCD1 VCCD1 pmos_flat_2/VPWR sky130_fd_pr__pfet_01v8_lvt ad=0p pd=0u as=0p ps=0u w=5e+06u l=1e+06u
X204 VCCD1 VCCD1 nmos_flat_1/GATE pmos_flat_0/VPWR sky130_fd_pr__pfet_01v8_lvt ad=0p pd=0u as=0p ps=0u w=5e+06u l=1e+06u
X205 VCCD1 VCCD1 pmos_flat_2/DRAIN pmos_flat_2/VPWR sky130_fd_pr__pfet_01v8_lvt ad=0p pd=0u as=0p ps=0u w=5e+06u l=1e+06u
X206 nmos_flat_1/GATE VCCD1 VCCD1 pmos_flat_0/VPWR sky130_fd_pr__pfet_01v8_lvt ad=0p pd=0u as=0p ps=0u w=5e+06u l=1e+06u
X207 VCCD1 VCCD1 pmos_flat_2/DRAIN pmos_flat_2/VPWR sky130_fd_pr__pfet_01v8_lvt ad=0p pd=0u as=0p ps=0u w=5e+06u l=1e+06u
X208 VSSA1 VSSA1 pmos_flat_2/DRAIN VSSA1 sky130_fd_pr__nfet_01v8_lvt ad=0p pd=0u as=0p ps=0u w=5e+06u l=1e+06u
X209 a_527183_363164# bgr_top_flat_0/sky130_asc_res_xhigh_po_2p85_1_0/Rin VSSA1 sky130_fd_pr__res_xhigh_po w=2.85e+06u l=7.88e+06u
X210 VCCD1 bgr_top_flat_0/sky130_asc_cap_mim_m3_1_4/Cout pmos_flat_3/DRAIN VCCD1 sky130_fd_pr__pfet_01v8_lvt ad=0p pd=0u as=0p ps=0u w=6.45e+06u l=2e+06u
X211 VCCD1 bgr_top_flat_0/sky130_asc_cap_mim_m3_1_4/Cout pmos_flat_3/DRAIN VCCD1 sky130_fd_pr__pfet_01v8_lvt ad=0p pd=0u as=0p ps=0u w=6.45e+06u l=2e+06u
X212 VSSA1 pmos_flat_3/DRAIN sky130_fd_pr__cap_mim_m3_1 l=2e+06u w=2e+06u
X213 VCCD1 bgr_top_flat_0/sky130_asc_pfet_01v8_lvt_6_1/GATE bgr_top_flat_0/sky130_asc_pfet_01v8_lvt_6_1/GATE VCCD1 sky130_fd_pr__pfet_01v8_lvt ad=0p pd=0u as=7.482e+12p ps=5.392e+07u w=6.45e+06u l=2e+06u
X214 VSSA1 VSSA1 pmos_flat_2/DRAIN VSSA1 sky130_fd_pr__nfet_01v8_lvt ad=0p pd=0u as=0p ps=0u w=5e+06u l=1e+06u
X215 VSSA1 pmos_flat_3/DRAIN sky130_fd_pr__cap_mim_m3_1 l=2e+06u w=2e+06u
X216 VSSA1 pmos_flat_3/DRAIN sky130_fd_pr__cap_mim_m3_1 l=2e+06u w=2e+06u
X217 VSSA1 pmos_flat_3/DRAIN sky130_fd_pr__cap_mim_m3_1 l=2e+06u w=2e+06u
X218 VSSA1 pmos_flat_3/DRAIN sky130_fd_pr__cap_mim_m3_1 l=2e+06u w=2e+06u
X219 a_527183_365908# bgr_top_flat_0/sky130_asc_res_xhigh_po_2p85_1_5/Rin VSSA1 sky130_fd_pr__res_xhigh_po w=2.85e+06u l=7.88e+06u
X220 a_519663_372376# bgr_top_flat_0/sky130_asc_res_xhigh_po_2p85_1_19/Rin VSSA1 sky130_fd_pr__res_xhigh_po w=2.85e+06u l=7.88e+06u
X221 bgr_top_flat_0/sky130_asc_nfet_01v8_lvt_1_0/DRAIN pmos_flat_2/DRAIN bgr_top_flat_0/sky130_asc_pfet_01v8_lvt_6_1/GATE VSSA1 sky130_fd_pr__nfet_01v8_lvt ad=0p pd=0u as=0p ps=0u w=4e+06u l=2e+06u
X222 bgr_top_flat_0/sky130_asc_nfet_01v8_lvt_1_1/GATE bgr_top_flat_0/sky130_asc_nfet_01v8_lvt_1_1/GATE VSSA1 VSSA1 sky130_fd_pr__nfet_01v8_lvt ad=1.16e+12p pd=8.58e+06u as=0p ps=0u w=4e+06u l=2e+06u
X223 VCCD1 bgr_top_flat_0/sky130_asc_cap_mim_m3_1_4/Cout pmos_flat_2/DRAIN VCCD1 sky130_fd_pr__pfet_01v8_lvt ad=0p pd=0u as=0p ps=0u w=6.45e+06u l=2e+06u
X224 pmos_flat_2/DRAIN VSSA1 VSSA1 VSSA1 sky130_fd_pr__nfet_01v8_lvt ad=0p pd=0u as=0p ps=0u w=5e+06u l=1e+06u
X225 VSSA1 VSSA1 bgr_top_flat_0/sky130_asc_res_xhigh_po_2p85_1_21/Rout sky130_fd_pr__pnp_05v5 area=0p