* NGSPICE file created from user_analog_project_wrapper.ext - technology: sky130A
<<<<<<< HEAD

.subckt nmos_flat VPWR SOURCE DRAIN GATE VGND
X0 DRAIN GATE SOURCE VGND sky130_fd_pr__nfet_01v8_lvt ad=1.595e+13p pd=1.1638e+08u as=1.45e+13p ps=1.058e+08u w=5e+06u l=1e+06u
X1 SOURCE GATE DRAIN VGND sky130_fd_pr__nfet_01v8_lvt ad=0p pd=0u as=0p ps=0u w=5e+06u l=1e+06u
X2 DRAIN GATE SOURCE VGND sky130_fd_pr__nfet_01v8_lvt ad=0p pd=0u as=0p ps=0u w=5e+06u l=1e+06u
X3 DRAIN GATE SOURCE VGND sky130_fd_pr__nfet_01v8_lvt ad=0p pd=0u as=0p ps=0u w=5e+06u l=1e+06u
X4 SOURCE GATE DRAIN VGND sky130_fd_pr__nfet_01v8_lvt ad=0p pd=0u as=0p ps=0u w=5e+06u l=1e+06u
X5 SOURCE GATE DRAIN VGND sky130_fd_pr__nfet_01v8_lvt ad=0p pd=0u as=0p ps=0u w=5e+06u l=1e+06u
X6 SOURCE GATE DRAIN VGND sky130_fd_pr__nfet_01v8_lvt ad=0p pd=0u as=0p ps=0u w=5e+06u l=1e+06u
X7 SOURCE GATE DRAIN VGND sky130_fd_pr__nfet_01v8_lvt ad=0p pd=0u as=0p ps=0u w=5e+06u l=1e+06u
X8 DRAIN GATE SOURCE VGND sky130_fd_pr__nfet_01v8_lvt ad=0p pd=0u as=0p ps=0u w=5e+06u l=1e+06u
X9 SOURCE GATE DRAIN VGND sky130_fd_pr__nfet_01v8_lvt ad=0p pd=0u as=0p ps=0u w=5e+06u l=1e+06u
X10 DRAIN GATE SOURCE VGND sky130_fd_pr__nfet_01v8_lvt ad=0p pd=0u as=0p ps=0u w=5e+06u l=1e+06u
X11 SOURCE GATE DRAIN VGND sky130_fd_pr__nfet_01v8_lvt ad=0p pd=0u as=0p ps=0u w=5e+06u l=1e+06u
X12 DRAIN GATE SOURCE VGND sky130_fd_pr__nfet_01v8_lvt ad=0p pd=0u as=0p ps=0u w=5e+06u l=1e+06u
X13 DRAIN GATE SOURCE VGND sky130_fd_pr__nfet_01v8_lvt ad=0p pd=0u as=0p ps=0u w=5e+06u l=1e+06u
X14 SOURCE GATE DRAIN VGND sky130_fd_pr__nfet_01v8_lvt ad=0p pd=0u as=0p ps=0u w=5e+06u l=1e+06u
X15 SOURCE GATE DRAIN VGND sky130_fd_pr__nfet_01v8_lvt ad=0p pd=0u as=0p ps=0u w=5e+06u l=1e+06u
X16 SOURCE GATE DRAIN VGND sky130_fd_pr__nfet_01v8_lvt ad=0p pd=0u as=0p ps=0u w=5e+06u l=1e+06u
X17 DRAIN GATE SOURCE VGND sky130_fd_pr__nfet_01v8_lvt ad=0p pd=0u as=0p ps=0u w=5e+06u l=1e+06u
X18 DRAIN GATE SOURCE VGND sky130_fd_pr__nfet_01v8_lvt ad=0p pd=0u as=0p ps=0u w=5e+06u l=1e+06u
X19 DRAIN GATE SOURCE VGND sky130_fd_pr__nfet_01v8_lvt ad=0p pd=0u as=0p ps=0u w=5e+06u l=1e+06u
.ends

.subckt sky130_fd_pr__rf_pnp_05v5_W3p40L3p40 Emitter Collector Base
X0 Collector Base Emitter sky130_fd_pr__pnp_05v5 area=0p
.ends

.subckt bandgaptop_flat_io bandgaptop_flat_0/porst bandgaptop_flat_0/amplifier_0/Vq
+ bandgaptop_flat_0/amplifier_0/vg bandgaptop_flat_0/amplifier_0/Vx bandgaptop_flat_0/amplifier_0/Vgate
+ bandgaptop_flat_0/bandgapcorev3_0/VbEnd bandgaptop_flat_0/bandgapcorev3_0/VbgEnd
+ bandgaptop_flat_0/bandgapcorev3_0/VaEnd bandgaptop_flat_0/Vbg bandgaptop_flat_0/amplifier_0/Vb
+ sky130_fd_pr__rf_pnp_05v5_W3p40L3p40_0[4|2]/Emitter sky130_fd_pr__rf_pnp_05v5_W3p40L3p40_0[7|4]/Emitter
+ bandgaptop_flat_0/amplifier_0/VDD bandgaptop_flat_0/amplifier_0/GND
Xsky130_fd_pr__rf_pnp_05v5_W3p40L3p40_0[0|0] sky130_fd_pr__rf_pnp_05v5_W3p40L3p40_0[7|4]/Emitter
+ bandgaptop_flat_0/amplifier_0/GND bandgaptop_flat_0/amplifier_0/GND sky130_fd_pr__rf_pnp_05v5_W3p40L3p40
Xsky130_fd_pr__rf_pnp_05v5_W3p40L3p40_0[1|0] sky130_fd_pr__rf_pnp_05v5_W3p40L3p40_0[7|4]/Emitter
+ bandgaptop_flat_0/amplifier_0/GND bandgaptop_flat_0/amplifier_0/GND sky130_fd_pr__rf_pnp_05v5_W3p40L3p40
Xsky130_fd_pr__rf_pnp_05v5_W3p40L3p40_0[2|0] sky130_fd_pr__rf_pnp_05v5_W3p40L3p40_0[7|4]/Emitter
+ bandgaptop_flat_0/amplifier_0/GND bandgaptop_flat_0/amplifier_0/GND sky130_fd_pr__rf_pnp_05v5_W3p40L3p40
Xsky130_fd_pr__rf_pnp_05v5_W3p40L3p40_0[3|0] sky130_fd_pr__rf_pnp_05v5_W3p40L3p40_0[7|4]/Emitter
+ bandgaptop_flat_0/amplifier_0/GND bandgaptop_flat_0/amplifier_0/GND sky130_fd_pr__rf_pnp_05v5_W3p40L3p40
Xsky130_fd_pr__rf_pnp_05v5_W3p40L3p40_0[4|0] sky130_fd_pr__rf_pnp_05v5_W3p40L3p40_0[7|4]/Emitter
+ bandgaptop_flat_0/amplifier_0/GND bandgaptop_flat_0/amplifier_0/GND sky130_fd_pr__rf_pnp_05v5_W3p40L3p40
Xsky130_fd_pr__rf_pnp_05v5_W3p40L3p40_0[5|0] sky130_fd_pr__rf_pnp_05v5_W3p40L3p40_0[7|4]/Emitter
+ bandgaptop_flat_0/amplifier_0/GND bandgaptop_flat_0/amplifier_0/GND sky130_fd_pr__rf_pnp_05v5_W3p40L3p40
Xsky130_fd_pr__rf_pnp_05v5_W3p40L3p40_0[6|0] sky130_fd_pr__rf_pnp_05v5_W3p40L3p40_0[7|4]/Emitter
+ bandgaptop_flat_0/amplifier_0/GND bandgaptop_flat_0/amplifier_0/GND sky130_fd_pr__rf_pnp_05v5_W3p40L3p40
Xsky130_fd_pr__rf_pnp_05v5_W3p40L3p40_0[7|0] sky130_fd_pr__rf_pnp_05v5_W3p40L3p40_0[7|4]/Emitter
+ bandgaptop_flat_0/amplifier_0/GND bandgaptop_flat_0/amplifier_0/GND sky130_fd_pr__rf_pnp_05v5_W3p40L3p40
Xsky130_fd_pr__rf_pnp_05v5_W3p40L3p40_0[0|1] sky130_fd_pr__rf_pnp_05v5_W3p40L3p40_0[7|4]/Emitter
+ bandgaptop_flat_0/amplifier_0/GND bandgaptop_flat_0/amplifier_0/GND sky130_fd_pr__rf_pnp_05v5_W3p40L3p40
Xsky130_fd_pr__rf_pnp_05v5_W3p40L3p40_0[1|1] sky130_fd_pr__rf_pnp_05v5_W3p40L3p40_0[7|4]/Emitter
+ bandgaptop_flat_0/amplifier_0/GND bandgaptop_flat_0/amplifier_0/GND sky130_fd_pr__rf_pnp_05v5_W3p40L3p40
Xsky130_fd_pr__rf_pnp_05v5_W3p40L3p40_0[2|1] sky130_fd_pr__rf_pnp_05v5_W3p40L3p40_0[7|4]/Emitter
+ bandgaptop_flat_0/amplifier_0/GND bandgaptop_flat_0/amplifier_0/GND sky130_fd_pr__rf_pnp_05v5_W3p40L3p40
Xsky130_fd_pr__rf_pnp_05v5_W3p40L3p40_0[3|1] sky130_fd_pr__rf_pnp_05v5_W3p40L3p40_0[7|4]/Emitter
+ bandgaptop_flat_0/amplifier_0/GND bandgaptop_flat_0/amplifier_0/GND sky130_fd_pr__rf_pnp_05v5_W3p40L3p40
Xsky130_fd_pr__rf_pnp_05v5_W3p40L3p40_0[4|1] sky130_fd_pr__rf_pnp_05v5_W3p40L3p40_0[7|4]/Emitter
+ bandgaptop_flat_0/amplifier_0/GND bandgaptop_flat_0/amplifier_0/GND sky130_fd_pr__rf_pnp_05v5_W3p40L3p40
Xsky130_fd_pr__rf_pnp_05v5_W3p40L3p40_0[5|1] sky130_fd_pr__rf_pnp_05v5_W3p40L3p40_0[7|4]/Emitter
+ bandgaptop_flat_0/amplifier_0/GND bandgaptop_flat_0/amplifier_0/GND sky130_fd_pr__rf_pnp_05v5_W3p40L3p40
Xsky130_fd_pr__rf_pnp_05v5_W3p40L3p40_0[6|1] sky130_fd_pr__rf_pnp_05v5_W3p40L3p40_0[7|4]/Emitter
+ bandgaptop_flat_0/amplifier_0/GND bandgaptop_flat_0/amplifier_0/GND sky130_fd_pr__rf_pnp_05v5_W3p40L3p40
Xsky130_fd_pr__rf_pnp_05v5_W3p40L3p40_0[7|1] sky130_fd_pr__rf_pnp_05v5_W3p40L3p40_0[7|4]/Emitter
+ bandgaptop_flat_0/amplifier_0/GND bandgaptop_flat_0/amplifier_0/GND sky130_fd_pr__rf_pnp_05v5_W3p40L3p40
Xsky130_fd_pr__rf_pnp_05v5_W3p40L3p40_0[0|2] sky130_fd_pr__rf_pnp_05v5_W3p40L3p40_0[7|4]/Emitter
+ bandgaptop_flat_0/amplifier_0/GND bandgaptop_flat_0/amplifier_0/GND sky130_fd_pr__rf_pnp_05v5_W3p40L3p40
Xsky130_fd_pr__rf_pnp_05v5_W3p40L3p40_0[1|2] sky130_fd_pr__rf_pnp_05v5_W3p40L3p40_0[7|4]/Emitter
+ bandgaptop_flat_0/amplifier_0/GND bandgaptop_flat_0/amplifier_0/GND sky130_fd_pr__rf_pnp_05v5_W3p40L3p40
Xsky130_fd_pr__rf_pnp_05v5_W3p40L3p40_0[2|2] sky130_fd_pr__rf_pnp_05v5_W3p40L3p40_0[7|4]/Emitter
+ bandgaptop_flat_0/amplifier_0/GND bandgaptop_flat_0/amplifier_0/GND sky130_fd_pr__rf_pnp_05v5_W3p40L3p40
Xsky130_fd_pr__rf_pnp_05v5_W3p40L3p40_0[3|2] sky130_fd_pr__rf_pnp_05v5_W3p40L3p40_0[7|4]/Emitter
+ bandgaptop_flat_0/amplifier_0/GND bandgaptop_flat_0/amplifier_0/GND sky130_fd_pr__rf_pnp_05v5_W3p40L3p40
Xsky130_fd_pr__rf_pnp_05v5_W3p40L3p40_0[4|2] sky130_fd_pr__rf_pnp_05v5_W3p40L3p40_0[4|2]/Emitter
+ bandgaptop_flat_0/amplifier_0/GND bandgaptop_flat_0/amplifier_0/GND sky130_fd_pr__rf_pnp_05v5_W3p40L3p40
Xsky130_fd_pr__rf_pnp_05v5_W3p40L3p40_0[5|2] sky130_fd_pr__rf_pnp_05v5_W3p40L3p40_0[7|4]/Emitter
+ bandgaptop_flat_0/amplifier_0/GND bandgaptop_flat_0/amplifier_0/GND sky130_fd_pr__rf_pnp_05v5_W3p40L3p40
Xsky130_fd_pr__rf_pnp_05v5_W3p40L3p40_0[6|2] sky130_fd_pr__rf_pnp_05v5_W3p40L3p40_0[7|4]/Emitter
+ bandgaptop_flat_0/amplifier_0/GND bandgaptop_flat_0/amplifier_0/GND sky130_fd_pr__rf_pnp_05v5_W3p40L3p40
Xsky130_fd_pr__rf_pnp_05v5_W3p40L3p40_0[7|2] sky130_fd_pr__rf_pnp_05v5_W3p40L3p40_0[7|4]/Emitter
+ bandgaptop_flat_0/amplifier_0/GND bandgaptop_flat_0/amplifier_0/GND sky130_fd_pr__rf_pnp_05v5_W3p40L3p40
Xsky130_fd_pr__rf_pnp_05v5_W3p40L3p40_0[0|3] sky130_fd_pr__rf_pnp_05v5_W3p40L3p40_0[7|4]/Emitter
+ bandgaptop_flat_0/amplifier_0/GND bandgaptop_flat_0/amplifier_0/GND sky130_fd_pr__rf_pnp_05v5_W3p40L3p40
Xsky130_fd_pr__rf_pnp_05v5_W3p40L3p40_0[1|3] sky130_fd_pr__rf_pnp_05v5_W3p40L3p40_0[7|4]/Emitter
+ bandgaptop_flat_0/amplifier_0/GND bandgaptop_flat_0/amplifier_0/GND sky130_fd_pr__rf_pnp_05v5_W3p40L3p40
Xsky130_fd_pr__rf_pnp_05v5_W3p40L3p40_0[2|3] sky130_fd_pr__rf_pnp_05v5_W3p40L3p40_0[7|4]/Emitter
+ bandgaptop_flat_0/amplifier_0/GND bandgaptop_flat_0/amplifier_0/GND sky130_fd_pr__rf_pnp_05v5_W3p40L3p40
Xsky130_fd_pr__rf_pnp_05v5_W3p40L3p40_0[3|3] sky130_fd_pr__rf_pnp_05v5_W3p40L3p40_0[7|4]/Emitter
+ bandgaptop_flat_0/amplifier_0/GND bandgaptop_flat_0/amplifier_0/GND sky130_fd_pr__rf_pnp_05v5_W3p40L3p40
Xsky130_fd_pr__rf_pnp_05v5_W3p40L3p40_0[4|3] sky130_fd_pr__rf_pnp_05v5_W3p40L3p40_0[7|4]/Emitter
+ bandgaptop_flat_0/amplifier_0/GND bandgaptop_flat_0/amplifier_0/GND sky130_fd_pr__rf_pnp_05v5_W3p40L3p40
Xsky130_fd_pr__rf_pnp_05v5_W3p40L3p40_0[5|3] sky130_fd_pr__rf_pnp_05v5_W3p40L3p40_0[7|4]/Emitter
+ bandgaptop_flat_0/amplifier_0/GND bandgaptop_flat_0/amplifier_0/GND sky130_fd_pr__rf_pnp_05v5_W3p40L3p40
Xsky130_fd_pr__rf_pnp_05v5_W3p40L3p40_0[6|3] sky130_fd_pr__rf_pnp_05v5_W3p40L3p40_0[7|4]/Emitter
+ bandgaptop_flat_0/amplifier_0/GND bandgaptop_flat_0/amplifier_0/GND sky130_fd_pr__rf_pnp_05v5_W3p40L3p40
Xsky130_fd_pr__rf_pnp_05v5_W3p40L3p40_0[7|3] sky130_fd_pr__rf_pnp_05v5_W3p40L3p40_0[7|4]/Emitter
+ bandgaptop_flat_0/amplifier_0/GND bandgaptop_flat_0/amplifier_0/GND sky130_fd_pr__rf_pnp_05v5_W3p40L3p40
Xsky130_fd_pr__rf_pnp_05v5_W3p40L3p40_0[0|4] sky130_fd_pr__rf_pnp_05v5_W3p40L3p40_0[7|4]/Emitter
+ bandgaptop_flat_0/amplifier_0/GND bandgaptop_flat_0/amplifier_0/GND sky130_fd_pr__rf_pnp_05v5_W3p40L3p40
Xsky130_fd_pr__rf_pnp_05v5_W3p40L3p40_0[1|4] sky130_fd_pr__rf_pnp_05v5_W3p40L3p40_0[7|4]/Emitter
+ bandgaptop_flat_0/amplifier_0/GND bandgaptop_flat_0/amplifier_0/GND sky130_fd_pr__rf_pnp_05v5_W3p40L3p40
Xsky130_fd_pr__rf_pnp_05v5_W3p40L3p40_0[2|4] sky130_fd_pr__rf_pnp_05v5_W3p40L3p40_0[7|4]/Emitter
+ bandgaptop_flat_0/amplifier_0/GND bandgaptop_flat_0/amplifier_0/GND sky130_fd_pr__rf_pnp_05v5_W3p40L3p40
Xsky130_fd_pr__rf_pnp_05v5_W3p40L3p40_0[3|4] sky130_fd_pr__rf_pnp_05v5_W3p40L3p40_0[7|4]/Emitter
+ bandgaptop_flat_0/amplifier_0/GND bandgaptop_flat_0/amplifier_0/GND sky130_fd_pr__rf_pnp_05v5_W3p40L3p40
Xsky130_fd_pr__rf_pnp_05v5_W3p40L3p40_0[4|4] sky130_fd_pr__rf_pnp_05v5_W3p40L3p40_0[7|4]/Emitter
+ bandgaptop_flat_0/amplifier_0/GND bandgaptop_flat_0/amplifier_0/GND sky130_fd_pr__rf_pnp_05v5_W3p40L3p40
Xsky130_fd_pr__rf_pnp_05v5_W3p40L3p40_0[5|4] sky130_fd_pr__rf_pnp_05v5_W3p40L3p40_0[7|4]/Emitter
+ bandgaptop_flat_0/amplifier_0/GND bandgaptop_flat_0/amplifier_0/GND sky130_fd_pr__rf_pnp_05v5_W3p40L3p40
Xsky130_fd_pr__rf_pnp_05v5_W3p40L3p40_0[6|4] sky130_fd_pr__rf_pnp_05v5_W3p40L3p40_0[7|4]/Emitter
+ bandgaptop_flat_0/amplifier_0/GND bandgaptop_flat_0/amplifier_0/GND sky130_fd_pr__rf_pnp_05v5_W3p40L3p40
Xsky130_fd_pr__rf_pnp_05v5_W3p40L3p40_0[7|4] sky130_fd_pr__rf_pnp_05v5_W3p40L3p40_0[7|4]/Emitter
+ bandgaptop_flat_0/amplifier_0/GND bandgaptop_flat_0/amplifier_0/GND sky130_fd_pr__rf_pnp_05v5_W3p40L3p40
X0 bandgaptop_flat_0/amplifier_0/Vgate bandgaptop_flat_0/amplifier_0/VDD sky130_fd_pr__cap_mim_m3_1 l=2e+06u w=2e+06u
X1 bandgaptop_flat_0/amplifier_0/Vgate bandgaptop_flat_0/amplifier_0/VDD sky130_fd_pr__cap_mim_m3_1 l=2e+06u w=2e+06u
X2 bandgaptop_flat_0/amplifier_0/Vgate bandgaptop_flat_0/amplifier_0/VDD sky130_fd_pr__cap_mim_m3_1 l=2e+06u w=2e+06u
X3 sky130_fd_pr__rf_pnp_05v5_W3p40L3p40_0[4|2]/Emitter bandgaptop_flat_0/amplifier_0/GND sky130_fd_pr__cap_mim_m3_2 l=2e+06u w=2e+06u
X4 bandgaptop_flat_0/amplifier_0/VDD bandgaptop_flat_0/amplifier_0/Vgate sky130_fd_pr__rf_pnp_05v5_W3p40L3p40_0[4|2]/Emitter bandgaptop_flat_0/amplifier_0/VDD sky130_fd_pr__pfet_01v8_lvt ad=2.50647e+14p pd=1.74774e+09u as=7.8898e+13p ps=4.8148e+08u w=3.87e+07u l=2e+06u
X5 bandgaptop_flat_0/amplifier_0/Vb bandgaptop_flat_0/amplifier_0/Vgate bandgaptop_flat_0/amplifier_0/VDD bandgaptop_flat_0/amplifier_0/VDD sky130_fd_pr__pfet_01v8_lvt ad=6.7338e+13p pd=4.6788e+08u as=0p ps=0u w=3.87e+07u l=2e+06u
X6 sky130_fd_pr__rf_pnp_05v5_W3p40L3p40_0[4|2]/Emitter bandgaptop_flat_0/amplifier_0/GND sky130_fd_pr__cap_mim_m3_2 l=2e+06u w=2e+06u
X7 a_463132_642452# bandgaptop_flat_0/bandgapcorev3_0/VbEnd bandgaptop_flat_0/amplifier_0/GND sky130_fd_pr__res_xhigh_po w=2.85e+06u l=3.152e+07u
X8 bandgaptop_flat_0/amplifier_0/Vx bandgaptop_flat_0/amplifier_0/GND bandgaptop_flat_0/amplifier_0/GND bandgaptop_flat_0/amplifier_0/GND sky130_fd_pr__nfet_01v8_lvt ad=1.16e+12p pd=9.16e+06u as=2.7691e+14p ps=1.57122e+09u w=2e+06u l=2e+06u
X9 bandgaptop_flat_0/amplifier_0/VDD bandgaptop_flat_0/amplifier_0/Vgate sky130_fd_pr__rf_pnp_05v5_W3p40L3p40_0[4|2]/Emitter bandgaptop_flat_0/amplifier_0/VDD sky130_fd_pr__pfet_01v8_lvt ad=0p pd=0u as=0p ps=0u w=3.87e+07u l=2e+06u
X10 sky130_fd_pr__rf_pnp_05v5_W3p40L3p40_0[4|2]/Emitter bandgaptop_flat_0/amplifier_0/Vgate bandgaptop_flat_0/amplifier_0/VDD bandgaptop_flat_0/amplifier_0/VDD sky130_fd_pr__pfet_01v8_lvt ad=0p pd=0u as=0p ps=0u w=3.87e+07u l=2e+06u
X11 bandgaptop_flat_0/amplifier_0/Vgate bandgaptop_flat_0/amplifier_0/VDD sky130_fd_pr__cap_mim_m3_1 l=2e+06u w=2e+06u
X12 bandgaptop_flat_0/amplifier_0/GND bandgaptop_flat_0/amplifier_0/GND bandgaptop_flat_0/amplifier_0/GND sky130_fd_pr__res_xhigh_po w=2.85e+06u l=3.152e+07u
X13 bandgaptop_flat_0/amplifier_0/Vgate bandgaptop_flat_0/amplifier_0/VDD sky130_fd_pr__cap_mim_m3_1 l=2e+06u w=2e+06u
X14 sky130_fd_pr__rf_pnp_05v5_W3p40L3p40_0[4|2]/Emitter bandgaptop_flat_0/amplifier_0/GND sky130_fd_pr__cap_mim_m3_2 l=2e+06u w=2e+06u
X15 sky130_fd_pr__rf_pnp_05v5_W3p40L3p40_0[4|2]/Emitter bandgaptop_flat_0/amplifier_0/GND sky130_fd_pr__cap_mim_m3_2 l=2e+06u w=2e+06u
X16 sky130_fd_pr__rf_pnp_05v5_W3p40L3p40_0[4|2]/Emitter bandgaptop_flat_0/amplifier_0/GND sky130_fd_pr__cap_mim_m3_2 l=2e+06u w=2e+06u
X17 sky130_fd_pr__rf_pnp_05v5_W3p40L3p40_0[4|2]/Emitter bandgaptop_flat_0/amplifier_0/GND sky130_fd_pr__cap_mim_m3_2 l=2e+06u w=2e+06u
X18 sky130_fd_pr__rf_pnp_05v5_W3p40L3p40_0[4|2]/Emitter bandgaptop_flat_0/amplifier_0/GND sky130_fd_pr__cap_mim_m3_2 l=2e+06u w=2e+06u
X19 bandgaptop_flat_0/amplifier_0/Vgate bandgaptop_flat_0/amplifier_0/VDD sky130_fd_pr__cap_mim_m3_1 l=2e+06u w=2e+06u
X20 bandgaptop_flat_0/amplifier_0/Vgate bandgaptop_flat_0/amplifier_0/VDD sky130_fd_pr__cap_mim_m3_1 l=2e+06u w=2e+06u
X21 bandgaptop_flat_0/amplifier_0/Vgate bandgaptop_flat_0/amplifier_0/VDD sky130_fd_pr__cap_mim_m3_1 l=2e+06u w=2e+06u
X22 bandgaptop_flat_0/amplifier_0/Vgate bandgaptop_flat_0/amplifier_0/VDD sky130_fd_pr__cap_mim_m3_1 l=2e+06u w=2e+06u
X23 sky130_fd_pr__rf_pnp_05v5_W3p40L3p40_0[4|2]/Emitter bandgaptop_flat_0/amplifier_0/GND sky130_fd_pr__cap_mim_m3_2 l=2e+06u w=2e+06u
X24 bandgaptop_flat_0/amplifier_0/Vgate bandgaptop_flat_0/amplifier_0/VDD sky130_fd_pr__cap_mim_m3_1 l=2e+06u w=2e+06u
X25 sky130_fd_pr__rf_pnp_05v5_W3p40L3p40_0[4|2]/Emitter bandgaptop_flat_0/amplifier_0/GND sky130_fd_pr__cap_mim_m3_2 l=2e+06u w=2e+06u
X26 sky130_fd_pr__rf_pnp_05v5_W3p40L3p40_0[4|2]/Emitter bandgaptop_flat_0/amplifier_0/GND sky130_fd_pr__cap_mim_m3_2 l=2e+06u w=2e+06u
X27 sky130_fd_pr__rf_pnp_05v5_W3p40L3p40_0[4|2]/Emitter bandgaptop_flat_0/amplifier_0/GND sky130_fd_pr__cap_mim_m3_2 l=2e+06u w=2e+06u
X28 sky130_fd_pr__rf_pnp_05v5_W3p40L3p40_0[4|2]/Emitter bandgaptop_flat_0/amplifier_0/GND sky130_fd_pr__cap_mim_m3_2 l=2e+06u w=2e+06u
X29 bandgaptop_flat_0/amplifier_0/Vgate bandgaptop_flat_0/amplifier_0/VDD sky130_fd_pr__cap_mim_m3_1 l=2e+06u w=2e+06u
X30 sky130_fd_pr__rf_pnp_05v5_W3p40L3p40_0[4|2]/Emitter bandgaptop_flat_0/amplifier_0/GND sky130_fd_pr__cap_mim_m3_2 l=2e+06u w=2e+06u
X31 sky130_fd_pr__rf_pnp_05v5_W3p40L3p40_0[4|2]/Emitter bandgaptop_flat_0/amplifier_0/GND sky130_fd_pr__cap_mim_m3_2 l=2e+06u w=2e+06u
X32 bandgaptop_flat_0/amplifier_0/Vgate bandgaptop_flat_0/amplifier_0/VDD sky130_fd_pr__cap_mim_m3_1 l=2e+06u w=2e+06u
X33 bandgaptop_flat_0/amplifier_0/Vgate bandgaptop_flat_0/amplifier_0/VDD sky130_fd_pr__cap_mim_m3_1 l=2e+06u w=2e+06u
X34 sky130_fd_pr__rf_pnp_05v5_W3p40L3p40_0[4|2]/Emitter bandgaptop_flat_0/amplifier_0/GND sky130_fd_pr__cap_mim_m3_2 l=2e+06u w=2e+06u
X35 sky130_fd_pr__rf_pnp_05v5_W3p40L3p40_0[4|2]/Emitter bandgaptop_flat_0/amplifier_0/GND sky130_fd_pr__cap_mim_m3_2 l=2e+06u w=2e+06u
X36 bandgaptop_flat_0/amplifier_0/Vgate bandgaptop_flat_0/amplifier_0/VDD sky130_fd_pr__cap_mim_m3_1 l=2e+06u w=2e+06u
X37 bandgaptop_flat_0/amplifier_0/Vgate bandgaptop_flat_0/amplifier_0/VDD sky130_fd_pr__cap_mim_m3_1 l=2e+06u w=2e+06u
X38 bandgaptop_flat_0/amplifier_0/Vgate bandgaptop_flat_0/amplifier_0/VDD sky130_fd_pr__cap_mim_m3_1 l=2e+06u w=2e+06u
X39 sky130_fd_pr__rf_pnp_05v5_W3p40L3p40_0[4|2]/Emitter bandgaptop_flat_0/amplifier_0/GND sky130_fd_pr__cap_mim_m3_2 l=2e+06u w=2e+06u
X40 sky130_fd_pr__rf_pnp_05v5_W3p40L3p40_0[4|2]/Emitter bandgaptop_flat_0/amplifier_0/GND sky130_fd_pr__cap_mim_m3_2 l=2e+06u w=2e+06u
X41 sky130_fd_pr__rf_pnp_05v5_W3p40L3p40_0[4|2]/Emitter bandgaptop_flat_0/amplifier_0/GND sky130_fd_pr__cap_mim_m3_2 l=2e+06u w=2e+06u
X42 sky130_fd_pr__rf_pnp_05v5_W3p40L3p40_0[4|2]/Emitter bandgaptop_flat_0/amplifier_0/GND sky130_fd_pr__cap_mim_m3_2 l=2e+06u w=2e+06u
X43 bandgaptop_flat_0/bandgapcorev3_0/VbgEnd a_463950_649188# bandgaptop_flat_0/amplifier_0/GND sky130_fd_pr__res_xhigh_po w=2.85e+06u l=3.152e+07u
X44 sky130_fd_pr__rf_pnp_05v5_W3p40L3p40_0[4|2]/Emitter bandgaptop_flat_0/amplifier_0/GND sky130_fd_pr__cap_mim_m3_2 l=2e+06u w=2e+06u
X45 sky130_fd_pr__rf_pnp_05v5_W3p40L3p40_0[4|2]/Emitter bandgaptop_flat_0/amplifier_0/GND sky130_fd_pr__cap_mim_m3_2 l=2e+06u w=2e+06u
X46 bandgaptop_flat_0/amplifier_0/VDD bandgaptop_flat_0/amplifier_0/Vgate bandgaptop_flat_0/amplifier_0/Vb bandgaptop_flat_0/amplifier_0/VDD sky130_fd_pr__pfet_01v8_lvt ad=0p pd=0u as=0p ps=0u w=3.87e+07u l=2e+06u
X47 bandgaptop_flat_0/amplifier_0/Vgate bandgaptop_flat_0/amplifier_0/VDD sky130_fd_pr__cap_mim_m3_1 l=2e+06u w=2e+06u
X48 sky130_fd_pr__rf_pnp_05v5_W3p40L3p40_0[4|2]/Emitter bandgaptop_flat_0/amplifier_0/Vgate bandgaptop_flat_0/amplifier_0/VDD bandgaptop_flat_0/amplifier_0/VDD sky130_fd_pr__pfet_01v8_lvt ad=0p pd=0u as=0p ps=0u w=3.87e+07u l=2e+06u
X49 bandgaptop_flat_0/amplifier_0/Vgate bandgaptop_flat_0/amplifier_0/VDD sky130_fd_pr__cap_mim_m3_1 l=2e+06u w=2e+06u
X50 bandgaptop_flat_0/amplifier_0/GND bandgaptop_flat_0/bandgapcorev3_0/VaEnd bandgaptop_flat_0/amplifier_0/GND sky130_fd_pr__res_xhigh_po w=2.85e+06u l=2.15e+07u
X51 sky130_fd_pr__rf_pnp_05v5_W3p40L3p40_0[4|2]/Emitter bandgaptop_flat_0/amplifier_0/GND sky130_fd_pr__cap_mim_m3_2 l=2e+06u w=2e+06u
X52 sky130_fd_pr__rf_pnp_05v5_W3p40L3p40_0[4|2]/Emitter bandgaptop_flat_0/amplifier_0/GND sky130_fd_pr__cap_mim_m3_2 l=2e+06u w=2e+06u
X53 bandgaptop_flat_0/amplifier_0/GND bandgaptop_flat_0/amplifier_0/GND bandgaptop_flat_0/amplifier_0/GND sky130_fd_pr__res_xhigh_po w=2.85e+06u l=2.15e+07u
X54 bandgaptop_flat_0/amplifier_0/Vb bandgaptop_flat_0/amplifier_0/Vgate bandgaptop_flat_0/amplifier_0/VDD bandgaptop_flat_0/amplifier_0/VDD sky130_fd_pr__pfet_01v8_lvt ad=0p pd=0u as=0p ps=0u w=3.87e+07u l=2e+06u
X55 bandgaptop_flat_0/amplifier_0/Vgate bandgaptop_flat_0/amplifier_0/VDD sky130_fd_pr__cap_mim_m3_1 l=2e+06u w=2e+06u
X56 sky130_fd_pr__rf_pnp_05v5_W3p40L3p40_0[4|2]/Emitter bandgaptop_flat_0/amplifier_0/GND sky130_fd_pr__cap_mim_m3_2 l=2e+06u w=2e+06u
X57 bandgaptop_flat_0/amplifier_0/Vgate bandgaptop_flat_0/amplifier_0/VDD sky130_fd_pr__cap_mim_m3_1 l=2e+06u w=2e+06u
X58 bandgaptop_flat_0/amplifier_0/Vgate bandgaptop_flat_0/amplifier_0/VDD sky130_fd_pr__cap_mim_m3_1 l=2e+06u w=2e+06u
X59 sky130_fd_pr__rf_pnp_05v5_W3p40L3p40_0[4|2]/Emitter bandgaptop_flat_0/amplifier_0/GND sky130_fd_pr__cap_mim_m3_2 l=2e+06u w=2e+06u
X60 sky130_fd_pr__rf_pnp_05v5_W3p40L3p40_0[4|2]/Emitter bandgaptop_flat_0/amplifier_0/GND sky130_fd_pr__cap_mim_m3_2 l=2e+06u w=2e+06u
X61 bandgaptop_flat_0/amplifier_0/Vgate bandgaptop_flat_0/amplifier_0/VDD sky130_fd_pr__cap_mim_m3_1 l=2e+06u w=2e+06u
X62 sky130_fd_pr__rf_pnp_05v5_W3p40L3p40_0[4|2]/Emitter bandgaptop_flat_0/amplifier_0/GND sky130_fd_pr__cap_mim_m3_2 l=2e+06u w=2e+06u
X63 bandgaptop_flat_0/amplifier_0/Vgate bandgaptop_flat_0/amplifier_0/VDD sky130_fd_pr__cap_mim_m3_1 l=2e+06u w=2e+06u
X64 a_468858_642452# a_466404_649188# bandgaptop_flat_0/amplifier_0/GND sky130_fd_pr__res_xhigh_po w=2.85e+06u l=3.152e+07u
X65 bandgaptop_flat_0/amplifier_0/Vgate bandgaptop_flat_0/amplifier_0/VDD sky130_fd_pr__cap_mim_m3_1 l=2e+06u w=2e+06u
X66 bandgaptop_flat_0/amplifier_0/Vgate bandgaptop_flat_0/amplifier_0/VDD sky130_fd_pr__cap_mim_m3_1 l=2e+06u w=2e+06u
X67 sky130_fd_pr__rf_pnp_05v5_W3p40L3p40_0[4|2]/Emitter bandgaptop_flat_0/amplifier_0/GND sky130_fd_pr__cap_mim_m3_2 l=2e+06u w=2e+06u
X68 bandgaptop_flat_0/amplifier_0/Vgate bandgaptop_flat_0/amplifier_0/VDD sky130_fd_pr__cap_mim_m3_1 l=2e+06u w=2e+06u
X69 bandgaptop_flat_0/amplifier_0/Vgate bandgaptop_flat_0/amplifier_0/VDD sky130_fd_pr__cap_mim_m3_1 l=2e+06u w=2e+06u
X70 bandgaptop_flat_0/amplifier_0/GND bandgaptop_flat_0/amplifier_0/GND bandgaptop_flat_0/amplifier_0/GND sky130_fd_pr__res_xhigh_po w=2.85e+06u l=1.662e+07u
X71 bandgaptop_flat_0/amplifier_0/Vb a_471312_649188# bandgaptop_flat_0/amplifier_0/GND sky130_fd_pr__res_xhigh_po w=2.85e+06u l=3.152e+07u
X72 bandgaptop_flat_0/amplifier_0/Vgate bandgaptop_flat_0/amplifier_0/VDD sky130_fd_pr__cap_mim_m3_1 l=2e+06u w=2e+06u
X73 sky130_fd_pr__rf_pnp_05v5_W3p40L3p40_0[4|2]/Emitter bandgaptop_flat_0/amplifier_0/GND sky130_fd_pr__cap_mim_m3_2 l=2e+06u w=2e+06u
X74 sky130_fd_pr__rf_pnp_05v5_W3p40L3p40_0[4|2]/Emitter bandgaptop_flat_0/amplifier_0/GND sky130_fd_pr__cap_mim_m3_2 l=2e+06u w=2e+06u
X75 bandgaptop_flat_0/amplifier_0/Vgate bandgaptop_flat_0/amplifier_0/VDD sky130_fd_pr__cap_mim_m3_1 l=2e+06u w=2e+06u
X76 bandgaptop_flat_0/amplifier_0/Vgate bandgaptop_flat_0/amplifier_0/VDD sky130_fd_pr__cap_mim_m3_1 l=2e+06u w=2e+06u
X77 sky130_fd_pr__rf_pnp_05v5_W3p40L3p40_0[4|2]/Emitter bandgaptop_flat_0/amplifier_0/GND sky130_fd_pr__cap_mim_m3_2 l=2e+06u w=2e+06u
X78 sky130_fd_pr__rf_pnp_05v5_W3p40L3p40_0[4|2]/Emitter bandgaptop_flat_0/amplifier_0/GND sky130_fd_pr__cap_mim_m3_2 l=2e+06u w=2e+06u
X79 bandgaptop_flat_0/amplifier_0/Vgate bandgaptop_flat_0/amplifier_0/VDD sky130_fd_pr__cap_mim_m3_1 l=2e+06u w=2e+06u
X80 sky130_fd_pr__rf_pnp_05v5_W3p40L3p40_0[4|2]/Emitter bandgaptop_flat_0/amplifier_0/GND sky130_fd_pr__cap_mim_m3_2 l=2e+06u w=2e+06u
X81 bandgaptop_flat_0/amplifier_0/VDD bandgaptop_flat_0/amplifier_0/Vgate sky130_fd_pr__rf_pnp_05v5_W3p40L3p40_0[4|2]/Emitter bandgaptop_flat_0/amplifier_0/VDD sky130_fd_pr__pfet_01v8_lvt ad=0p pd=0u as=0p ps=0u w=3.87e+07u l=2e+06u
X82 bandgaptop_flat_0/amplifier_0/Vb bandgaptop_flat_0/amplifier_0/Vgate bandgaptop_flat_0/amplifier_0/VDD bandgaptop_flat_0/amplifier_0/VDD sky130_fd_pr__pfet_01v8_lvt ad=0p pd=0u as=0p ps=0u w=3.87e+07u l=2e+06u
X83 sky130_fd_pr__rf_pnp_05v5_W3p40L3p40_0[4|2]/Emitter bandgaptop_flat_0/amplifier_0/GND sky130_fd_pr__cap_mim_m3_2 l=2e+06u w=2e+06u
X84 bandgaptop_flat_0/amplifier_0/Vgate bandgaptop_flat_0/amplifier_0/VDD sky130_fd_pr__cap_mim_m3_1 l=2e+06u w=2e+06u
X85 bandgaptop_flat_0/amplifier_0/Vgate bandgaptop_flat_0/amplifier_0/VDD sky130_fd_pr__cap_mim_m3_1 l=2e+06u w=2e+06u
X86 bandgaptop_flat_0/amplifier_0/Vgate bandgaptop_flat_0/amplifier_0/VDD sky130_fd_pr__cap_mim_m3_1 l=2e+06u w=2e+06u
X87 bandgaptop_flat_0/amplifier_0/Vgate bandgaptop_flat_0/amplifier_0/VDD sky130_fd_pr__cap_mim_m3_1 l=2e+06u w=2e+06u
X88 sky130_fd_pr__rf_pnp_05v5_W3p40L3p40_0[4|2]/Emitter bandgaptop_flat_0/amplifier_0/GND sky130_fd_pr__cap_mim_m3_2 l=2e+06u w=2e+06u
X89 a_463132_642452# a_466404_649188# bandgaptop_flat_0/amplifier_0/GND sky130_fd_pr__res_xhigh_po w=2.85e+06u l=3.152e+07u
X90 sky130_fd_pr__rf_pnp_05v5_W3p40L3p40_0[4|2]/Emitter bandgaptop_flat_0/amplifier_0/GND sky130_fd_pr__cap_mim_m3_2 l=2e+06u w=2e+06u
X91 sky130_fd_pr__rf_pnp_05v5_W3p40L3p40_0[4|2]/Emitter bandgaptop_flat_0/amplifier_0/GND sky130_fd_pr__cap_mim_m3_2 l=2e+06u w=2e+06u
X92 a_462314_642452# a_464768_649188# bandgaptop_flat_0/amplifier_0/GND sky130_fd_pr__res_xhigh_po w=2.85e+06u l=3.152e+07u
X93 bandgaptop_flat_0/Vbg bandgaptop_flat_0/amplifier_0/Vgate bandgaptop_flat_0/amplifier_0/VDD bandgaptop_flat_0/amplifier_0/VDD sky130_fd_pr__pfet_01v8_lvt ad=6.7338e+13p pd=4.6788e+08u as=0p ps=0u w=3.87e+07u l=2e+06u
X94 bandgaptop_flat_0/amplifier_0/Vgate bandgaptop_flat_0/amplifier_0/VDD sky130_fd_pr__cap_mim_m3_1 l=2e+06u w=2e+06u
X95 sky130_fd_pr__rf_pnp_05v5_W3p40L3p40_0[4|2]/Emitter bandgaptop_flat_0/amplifier_0/GND sky130_fd_pr__cap_mim_m3_2 l=2e+06u w=2e+06u
X96 bandgaptop_flat_0/Vbg bandgaptop_flat_0/amplifier_0/Vgate bandgaptop_flat_0/amplifier_0/VDD bandgaptop_flat_0/amplifier_0/VDD sky130_fd_pr__pfet_01v8_lvt ad=0p pd=0u as=0p ps=0u w=3.87e+07u l=2e+06u
X97 bandgaptop_flat_0/amplifier_0/Vgate bandgaptop_flat_0/amplifier_0/VDD sky130_fd_pr__cap_mim_m3_1 l=2e+06u w=2e+06u
X98 a_468858_642452# a_471312_649188# bandgaptop_flat_0/amplifier_0/GND sky130_fd_pr__res_xhigh_po w=2.85e+06u l=3.152e+07u
X99 sky130_fd_pr__rf_pnp_05v5_W3p40L3p40_0[4|2]/Emitter bandgaptop_flat_0/amplifier_0/GND sky130_fd_pr__cap_mim_m3_2 l=2e+06u w=2e+06u
X100 sky130_fd_pr__rf_pnp_05v5_W3p40L3p40_0[4|2]/Emitter bandgaptop_flat_0/amplifier_0/GND sky130_fd_pr__cap_mim_m3_2 l=2e+06u w=2e+06u
X101 bandgaptop_flat_0/Vbg bandgaptop_flat_0/amplifier_0/Vgate bandgaptop_flat_0/amplifier_0/VDD bandgaptop_flat_0/amplifier_0/VDD sky130_fd_pr__pfet_01v8_lvt ad=0p pd=0u as=0p ps=0u w=3.87e+07u l=2e+06u
X102 bandgaptop_flat_0/amplifier_0/Vgate bandgaptop_flat_0/amplifier_0/VDD sky130_fd_pr__cap_mim_m3_1 l=2e+06u w=2e+06u
X103 sky130_fd_pr__rf_pnp_05v5_W3p40L3p40_0[4|2]/Emitter bandgaptop_flat_0/amplifier_0/GND sky130_fd_pr__cap_mim_m3_2 l=2e+06u w=2e+06u
X104 bandgaptop_flat_0/amplifier_0/Vgate bandgaptop_flat_0/amplifier_0/VDD sky130_fd_pr__cap_mim_m3_1 l=2e+06u w=2e+06u
X105 bandgaptop_flat_0/amplifier_0/Vgate bandgaptop_flat_0/amplifier_0/VDD sky130_fd_pr__cap_mim_m3_1 l=2e+06u w=2e+06u
X106 sky130_fd_pr__rf_pnp_05v5_W3p40L3p40_0[4|2]/Emitter bandgaptop_flat_0/amplifier_0/GND sky130_fd_pr__cap_mim_m3_2 l=2e+06u w=2e+06u
X107 bandgaptop_flat_0/amplifier_0/Vgate bandgaptop_flat_0/amplifier_0/VDD sky130_fd_pr__cap_mim_m3_1 l=2e+06u w=2e+06u
X108 bandgaptop_flat_0/amplifier_0/Vq bandgaptop_flat_0/amplifier_0/Vb bandgaptop_flat_0/amplifier_0/vg bandgaptop_flat_0/amplifier_0/GND sky130_fd_pr__nfet_01v8_lvt ad=1.624e+13p pd=1.1606e+08u as=7.83e+12p ps=5.574e+07u w=9e+06u l=2e+06u
X109 bandgaptop_flat_0/amplifier_0/Vq sky130_fd_pr__rf_pnp_05v5_W3p40L3p40_0[4|2]/Emitter bandgaptop_flat_0/amplifier_0/Vgate bandgaptop_flat_0/amplifier_0/GND sky130_fd_pr__nfet_01v8_lvt ad=0p pd=0u as=1.566e+13p ps=1.1032e+08u w=9e+06u l=2e+06u
X110 bandgaptop_flat_0/amplifier_0/Vgate bandgaptop_flat_0/amplifier_0/VDD sky130_fd_pr__cap_mim_m3_1 l=2e+06u w=2e+06u
X111 sky130_fd_pr__rf_pnp_05v5_W3p40L3p40_0[4|2]/Emitter bandgaptop_flat_0/amplifier_0/GND sky130_fd_pr__cap_mim_m3_2 l=2e+06u w=2e+06u
X112 sky130_fd_pr__rf_pnp_05v5_W3p40L3p40_0[4|2]/Emitter bandgaptop_flat_0/amplifier_0/GND sky130_fd_pr__cap_mim_m3_2 l=2e+06u w=2e+06u
X113 sky130_fd_pr__rf_pnp_05v5_W3p40L3p40_0[4|2]/Emitter bandgaptop_flat_0/amplifier_0/GND sky130_fd_pr__cap_mim_m3_2 l=2e+06u w=2e+06u
X114 sky130_fd_pr__rf_pnp_05v5_W3p40L3p40_0[4|2]/Emitter bandgaptop_flat_0/amplifier_0/GND sky130_fd_pr__cap_mim_m3_2 l=2e+06u w=2e+06u
X115 sky130_fd_pr__rf_pnp_05v5_W3p40L3p40_0[4|2]/Emitter bandgaptop_flat_0/amplifier_0/GND sky130_fd_pr__cap_mim_m3_2 l=2e+06u w=2e+06u
X116 bandgaptop_flat_0/amplifier_0/GND bandgaptop_flat_0/amplifier_0/Vx bandgaptop_flat_0/amplifier_0/Vq bandgaptop_flat_0/amplifier_0/GND sky130_fd_pr__nfet_01v8_lvt ad=0p pd=0u as=0p ps=0u w=2e+06u l=2e+06u
X117 bandgaptop_flat_0/amplifier_0/VDD bandgaptop_flat_0/amplifier_0/Vgate sky130_fd_pr__rf_pnp_05v5_W3p40L3p40_0[4|2]/Emitter bandgaptop_flat_0/amplifier_0/VDD sky130_fd_pr__pfet_01v8_lvt ad=0p pd=0u as=0p ps=0u w=3.87e+07u l=2e+06u
X118 bandgaptop_flat_0/amplifier_0/Vgate bandgaptop_flat_0/amplifier_0/VDD sky130_fd_pr__cap_mim_m3_1 l=2e+06u w=2e+06u
X119 sky130_fd_pr__rf_pnp_05v5_W3p40L3p40_0[4|2]/Emitter bandgaptop_flat_0/amplifier_0/GND sky130_fd_pr__cap_mim_m3_2 l=2e+06u w=2e+06u
X120 bandgaptop_flat_0/amplifier_0/GND bandgaptop_flat_0/amplifier_0/GND bandgaptop_flat_0/amplifier_0/Vx bandgaptop_flat_0/amplifier_0/GND sky130_fd_pr__nfet_01v8_lvt ad=0p pd=0u as=0p ps=0u w=2e+06u l=2e+06u
X121 bandgaptop_flat_0/amplifier_0/VDD bandgaptop_flat_0/amplifier_0/VDD sky130_fd_pr__rf_pnp_05v5_W3p40L3p40_0[4|2]/Emitter bandgaptop_flat_0/amplifier_0/VDD sky130_fd_pr__pfet_01v8_lvt ad=0p pd=0u as=0p ps=0u w=3.87e+07u l=2e+06u
X122 bandgaptop_flat_0/amplifier_0/Vgate bandgaptop_flat_0/amplifier_0/VDD sky130_fd_pr__cap_mim_m3_1 l=2e+06u w=2e+06u
X123 sky130_fd_pr__rf_pnp_05v5_W3p40L3p40_0[7|4]/Emitter bandgaptop_flat_0/amplifier_0/Vb bandgaptop_flat_0/amplifier_0/GND sky130_fd_pr__res_xhigh_po w=2.85e+06u l=3.152e+07u
X124 sky130_fd_pr__rf_pnp_05v5_W3p40L3p40_0[4|2]/Emitter bandgaptop_flat_0/amplifier_0/GND sky130_fd_pr__cap_mim_m3_2 l=2e+06u w=2e+06u
X125 sky130_fd_pr__rf_pnp_05v5_W3p40L3p40_0[4|2]/Emitter bandgaptop_flat_0/amplifier_0/GND sky130_fd_pr__cap_mim_m3_2 l=2e+06u w=2e+06u
X126 sky130_fd_pr__rf_pnp_05v5_W3p40L3p40_0[4|2]/Emitter bandgaptop_flat_0/amplifier_0/GND sky130_fd_pr__cap_mim_m3_2 l=2e+06u w=2e+06u
X127 sky130_fd_pr__rf_pnp_05v5_W3p40L3p40_0[4|2]/Emitter bandgaptop_flat_0/amplifier_0/GND sky130_fd_pr__cap_mim_m3_2 l=2e+06u w=2e+06u
X128 a_462314_642452# bandgaptop_flat_0/bandgapcorev3_0/VaEnd bandgaptop_flat_0/amplifier_0/GND sky130_fd_pr__res_xhigh_po w=2.85e+06u l=3.152e+07u
X129 sky130_fd_pr__rf_pnp_05v5_W3p40L3p40_0[4|2]/Emitter bandgaptop_flat_0/amplifier_0/GND sky130_fd_pr__cap_mim_m3_2 l=2e+06u w=2e+06u
X130 bandgaptop_flat_0/amplifier_0/VDD bandgaptop_flat_0/amplifier_0/Vgate bandgaptop_flat_0/amplifier_0/Vx bandgaptop_flat_0/amplifier_0/VDD sky130_fd_pr__pfet_01v8_lvt ad=0p pd=0u as=2.2446e+13p ps=1.5828e+08u w=1.29e+07u l=2e+06u