* NGSPICE file created from user_analog_project_wrapper.ext - technology: sky130A

.subckt user_analog_project_wrapper gpio_analog[0] gpio_analog[10] gpio_analog[11]
+ gpio_analog[12] gpio_analog[13] gpio_analog[14] gpio_analog[15] gpio_analog[16]
+ gpio_analog[17] gpio_analog[1] gpio_analog[2] gpio_analog[3] gpio_analog[4] gpio_analog[5]
+ gpio_analog[6] gpio_analog[7] gpio_analog[8] gpio_analog[9] gpio_noesd[0] gpio_noesd[10]
+ gpio_noesd[11] gpio_noesd[12] gpio_noesd[13] gpio_noesd[14] gpio_noesd[15] gpio_noesd[16]
+ gpio_noesd[17] gpio_noesd[1] gpio_noesd[2] gpio_noesd[3] gpio_noesd[4] gpio_noesd[5]
+ gpio_noesd[6] gpio_noesd[7] gpio_noesd[8] gpio_noesd[9] io_analog[0] io_analog[10]
+ io_analog[1] io_analog[2] io_analog[3] io_analog[4] io_analog[5] io_analog[6] io_analog[7]
+ io_analog[8] io_analog[9] io_clamp_high[0] io_clamp_high[1] io_clamp_high[2] io_clamp_low[0]
+ io_clamp_low[1] io_clamp_low[2] io_in[0] io_in[10] io_in[11] io_in[12] io_in[13]
+ io_in[14] io_in[15] io_in[16] io_in[17] io_in[18] io_in[19] io_in[1] io_in[20] io_in[21]
+ io_in[22] io_in[23] io_in[24] io_in[25] io_in[26] io_in[2] io_in[3] io_in[4] io_in[5]
+ io_in[6] io_in[7] io_in[8] io_in[9] io_in_3v3[0] io_in_3v3[10] io_in_3v3[11] io_in_3v3[12]
+ io_in_3v3[13] io_in_3v3[14] io_in_3v3[15] io_in_3v3[16] io_in_3v3[17] io_in_3v3[18]
+ io_in_3v3[19] io_in_3v3[1] io_in_3v3[20] io_in_3v3[21] io_in_3v3[22] io_in_3v3[23]
+ io_in_3v3[24] io_in_3v3[25] io_in_3v3[26] io_in_3v3[2] io_in_3v3[3] io_in_3v3[4]
+ io_in_3v3[5] io_in_3v3[6] io_in_3v3[7] io_in_3v3[8] io_in_3v3[9] io_oeb[0] io_oeb[10]
+ io_oeb[11] io_oeb[12] io_oeb[13] io_oeb[14] io_oeb[15] io_oeb[16] io_oeb[17] io_oeb[18]
+ io_oeb[19] io_oeb[1] io_oeb[20] io_oeb[21] io_oeb[22] io_oeb[23] io_oeb[24] io_oeb[25]
+ io_oeb[26] io_oeb[2] io_oeb[3] io_oeb[4] io_oeb[5] io_oeb[6] io_oeb[7] io_oeb[8]
+ io_oeb[9] io_out[0] io_out[10] io_out[11] io_out[12] io_out[13] io_out[14] io_out[15]
+ io_out[16] io_out[17] io_out[18] io_out[19] io_out[1] io_out[20] io_out[21] io_out[22]
+ io_out[23] io_out[24] io_out[25] io_out[26] io_out[2] io_out[3] io_out[4] io_out[5]
+ io_out[6] io_out[7] io_out[8] io_out[9] la_data_in[0] la_data_in[100] la_data_in[101]
+ la_data_in[102] la_data_in[103] la_data_in[104] la_data_in[105] la_data_in[106]
+ la_data_in[107] la_data_in[108] la_data_in[109] la_data_in[10] la_data_in[110] la_data_in[111]
+ la_data_in[112] la_data_in[113] la_data_in[114] la_data_in[115] la_data_in[116]
+ la_data_in[117] la_data_in[118] la_data_in[119] la_data_in[11] la_data_in[120] la_data_in[121]
+ la_data_in[122] la_data_in[123] la_data_in[124] la_data_in[125] la_data_in[126]
+ la_data_in[127] la_data_in[12] la_data_in[13] la_data_in[14] la_data_in[15] la_data_in[16]
+ la_data_in[17] la_data_in[18] la_data_in[19] la_data_in[1] la_data_in[20] la_data_in[21]
+ la_data_in[22] la_data_in[23] la_data_in[24] la_data_in[25] la_data_in[26] la_data_in[27]
+ la_data_in[28] la_data_in[29] la_data_in[2] la_data_in[30] la_data_in[31] la_data_in[32]
+ la_data_in[33] la_data_in[34] la_data_in[35] la_data_in[36] la_data_in[37] la_data_in[38]
+ la_data_in[39] la_data_in[3] la_data_in[40] la_data_in[41] la_data_in[42] la_data_in[43]
+ la_data_in[44] la_data_in[45] la_data_in[46] la_data_in[47] la_data_in[48] la_data_in[49]
+ la_data_in[4] la_data_in[50] la_data_in[51] la_data_in[52] la_data_in[53] la_data_in[54]
+ la_data_in[55] la_data_in[56] la_data_in[57] la_data_in[58] la_data_in[59] la_data_in[5]
+ la_data_in[60] la_data_in[61] la_data_in[62] la_data_in[63] la_data_in[64] la_data_in[65]
+ la_data_in[66] la_data_in[67] la_data_in[68] la_data_in[69] la_data_in[6] la_data_in[70]
+ la_data_in[71] la_data_in[72] la_data_in[73] la_data_in[74] la_data_in[75] la_data_in[76]
+ la_data_in[77] la_data_in[78] la_data_in[79] la_data_in[7] la_data_in[80] la_data_in[81]
+ la_data_in[82] la_data_in[83] la_data_in[84] la_data_in[85] la_data_in[86] la_data_in[87]
+ la_data_in[88] la_data_in[89] la_data_in[8] la_data_in[90] la_data_in[91] la_data_in[92]
+ la_data_in[93] la_data_in[94] la_data_in[95] la_data_in[96] la_data_in[97] la_data_in[98]
+ la_data_in[99] la_data_in[9] la_data_out[0] la_data_out[100] la_data_out[101] la_data_out[102]
+ la_data_out[103] la_data_out[104] la_data_out[105] la_data_out[106] la_data_out[107]
+ la_data_out[108] la_data_out[109] la_data_out[10] la_data_out[110] la_data_out[111]
+ la_data_out[112] la_data_out[113] la_data_out[114] la_data_out[115] la_data_out[116]
+ la_data_out[117] la_data_out[118] la_data_out[119] la_data_out[11] la_data_out[120]
+ la_data_out[121] la_data_out[122] la_data_out[123] la_data_out[124] la_data_out[125]
+ la_data_out[126] la_data_out[127] la_data_out[12] la_data_out[13] la_data_out[14]
+ la_data_out[15] la_data_out[16] la_data_out[17] la_data_out[18] la_data_out[19]
+ la_data_out[1] la_data_out[20] la_data_out[21] la_data_out[22] la_data_out[23] la_data_out[24]
+ la_data_out[25] la_data_out[26] la_data_out[27] la_data_out[28] la_data_out[29]
+ la_data_out[2] la_data_out[30] la_data_out[31] la_data_out[32] la_data_out[33] la_data_out[34]
+ la_data_out[35] la_data_out[36] la_data_out[37] la_data_out[38] la_data_out[39]
+ la_data_out[3] la_data_out[40] la_data_out[41] la_data_out[42] la_data_out[43] la_data_out[44]
+ la_data_out[45] la_data_out[46] la_data_out[47] la_data_out[48] la_data_out[49]
+ la_data_out[4] la_data_out[50] la_data_out[51] la_data_out[52] la_data_out[53] la_data_out[54]
+ la_data_out[55] la_data_out[56] la_data_out[57] la_data_out[58] la_data_out[59]
+ la_data_out[5] la_data_out[60] la_data_out[61] la_data_out[62] la_data_out[63] la_data_out[64]
+ la_data_out[65] la_data_out[66] la_data_out[67] la_data_out[68] la_data_out[69]
+ la_data_out[6] la_data_out[70] la_data_out[71] la_data_out[72] la_data_out[73] la_data_out[74]
+ la_data_out[75] la_data_out[76] la_data_out[77] la_data_out[78] la_data_out[79]
+ la_data_out[7] la_data_out[80] la_data_out[81] la_data_out[82] la_data_out[83] la_data_out[84]
+ la_data_out[85] la_data_out[86] la_data_out[87] la_data_out[88] la_data_out[89]
+ la_data_out[8] la_data_out[90] la_data_out[91] la_data_out[92] la_data_out[93] la_data_out[94]
+ la_data_out[95] la_data_out[96] la_data_out[97] la_data_out[98] la_data_out[99]
+ la_data_out[9] la_oenb[0] la_oenb[100] la_oenb[101] la_oenb[102] la_oenb[103] la_oenb[104]
+ la_oenb[105] la_oenb[106] la_oenb[107] la_oenb[108] la_oenb[109] la_oenb[10] la_oenb[110]
+ la_oenb[111] la_oenb[112] la_oenb[113] la_oenb[114] la_oenb[115] la_oenb[116] la_oenb[117]
+ la_oenb[118] la_oenb[119] la_oenb[11] la_oenb[120] la_oenb[121] la_oenb[122] la_oenb[123]
+ la_oenb[124] la_oenb[125] la_oenb[126] la_oenb[127] la_oenb[12] la_oenb[13] la_oenb[14]
+ la_oenb[15] la_oenb[16] la_oenb[17] la_oenb[18] la_oenb[19] la_oenb[1] la_oenb[20]
+ la_oenb[21] la_oenb[22] la_oenb[23] la_oenb[24] la_oenb[25] la_oenb[26] la_oenb[27]
+ la_oenb[28] la_oenb[29] la_oenb[2] la_oenb[30] la_oenb[31] la_oenb[32] la_oenb[33]
+ la_oenb[34] la_oenb[35] la_oenb[36] la_oenb[37] la_oenb[38] la_oenb[39] la_oenb[3]
+ la_oenb[40] la_oenb[41] la_oenb[42] la_oenb[43] la_oenb[44] la_oenb[45] la_oenb[46]
+ la_oenb[47] la_oenb[48] la_oenb[49] la_oenb[4] la_oenb[50] la_oenb[51] la_oenb[52]
+ la_oenb[53] la_oenb[54] la_oenb[55] la_oenb[56] la_oenb[57] la_oenb[58] la_oenb[59]
+ la_oenb[5] la_oenb[60] la_oenb[61] la_oenb[62] la_oenb[63] la_oenb[64] la_oenb[65]
+ la_oenb[66] la_oenb[67] la_oenb[68] la_oenb[69] la_oenb[6] la_oenb[70] la_oenb[71]
+ la_oenb[72] la_oenb[73] la_oenb[74] la_oenb[75] la_oenb[76] la_oenb[77] la_oenb[78]
+ la_oenb[79] la_oenb[7] la_oenb[80] la_oenb[81] la_oenb[82] la_oenb[83] la_oenb[84]
+ la_oenb[85] la_oenb[86] la_oenb[87] la_oenb[88] la_oenb[89] la_oenb[8] la_oenb[90]
+ la_oenb[91] la_oenb[92] la_oenb[93] la_oenb[94] la_oenb[95] la_oenb[96] la_oenb[97]
+ la_oenb[98] la_oenb[99] la_oenb[9] user_clock2 user_irq[0] user_irq[1] user_irq[2]
+ vccd2 vdda1 vdda2 vssa2 vssd1 vssd2 wb_clk_i wb_rst_i wbs_ack_o wbs_adr_i[0] wbs_adr_i[10]
+ wbs_adr_i[11] wbs_adr_i[12] wbs_adr_i[13] wbs_adr_i[14] wbs_adr_i[15] wbs_adr_i[16]
+ wbs_adr_i[17] wbs_adr_i[18] wbs_adr_i[19] wbs_adr_i[1] wbs_adr_i[20] wbs_adr_i[21]
+ wbs_adr_i[22] wbs_adr_i[23] wbs_adr_i[24] wbs_adr_i[25] wbs_adr_i[26] wbs_adr_i[27]
+ wbs_adr_i[28] wbs_adr_i[29] wbs_adr_i[2] wbs_adr_i[30] wbs_adr_i[31] wbs_adr_i[3]
+ wbs_adr_i[4] wbs_adr_i[5] wbs_adr_i[6] wbs_adr_i[7] wbs_adr_i[8] wbs_adr_i[9] wbs_cyc_i
+ wbs_dat_i[0] wbs_dat_i[10] wbs_dat_i[11] wbs_dat_i[12] wbs_dat_i[13] wbs_dat_i[14]
+ wbs_dat_i[15] wbs_dat_i[16] wbs_dat_i[17] wbs_dat_i[18] wbs_dat_i[19] wbs_dat_i[1]
+ wbs_dat_i[20] wbs_dat_i[21] wbs_dat_i[22] wbs_dat_i[23] wbs_dat_i[24] wbs_dat_i[25]
+ wbs_dat_i[26] wbs_dat_i[27] wbs_dat_i[28] wbs_dat_i[29] wbs_dat_i[2] wbs_dat_i[30]
+ wbs_dat_i[31] wbs_dat_i[3] wbs_dat_i[4] wbs_dat_i[5] wbs_dat_i[6] wbs_dat_i[7] wbs_dat_i[8]
+ wbs_dat_i[9] wbs_dat_o[0] wbs_dat_o[10] wbs_dat_o[11] wbs_dat_o[12] wbs_dat_o[13]
+ wbs_dat_o[14] wbs_dat_o[15] wbs_dat_o[16] wbs_dat_o[17] wbs_dat_o[18] wbs_dat_o[19]
+ wbs_dat_o[1] wbs_dat_o[20] wbs_dat_o[21] wbs_dat_o[22] wbs_dat_o[23] wbs_dat_o[24]
+ wbs_dat_o[25] wbs_dat_o[26] wbs_dat_o[27] wbs_dat_o[28] wbs_dat_o[29] wbs_dat_o[2]
+ wbs_dat_o[30] wbs_dat_o[31] wbs_dat_o[3] wbs_dat_o[4] wbs_dat_o[5] wbs_dat_o[6]
+ wbs_dat_o[7] wbs_dat_o[8] wbs_dat_o[9] wbs_sel_i[0] wbs_sel_i[1] wbs_sel_i[2] wbs_sel_i[3]
+ wbs_stb_i wbs_we_i vssa1 vccd1
X0 bgr_gen7_0/sky130_asc_cap_mim_m3_1_5/Cin bgr_gen7_0/sky130_asc_cap_mim_m3_1_0/Cout vccd1 vccd1 sky130_fd_pr__pfet_01v8_lvt ad=8.2639e+13p pd=5.2584e+08u as=7.41675e+14p ps=5.29422e+09u w=6.45e+06u l=2e+06u
X1 a_512652_505382# a_519388_502928# vssa1 sky130_fd_pr__res_xhigh_po_2p85 l=3.152e+07u
X2 vssa1 bgr_top_0/sky130_asc_cap_mim_m3_1_0/Cin sky130_fd_pr__cap_mim_m3_1 l=2e+06u w=2e+06u
X3 vssa1 bgr_gen7_0/sky130_asc_cap_mim_m3_1_5/Cin sky130_fd_pr__cap_mim_m3_1 l=2e+06u w=2e+06u
X4 vccd1 bgr_top_0/sky130_asc_cap_mim_m3_1_5/Cout bgr_top_0/sky130_asc_cap_mim_m3_1_0/Cin vccd1 sky130_fd_pr__pfet_01v8_lvt ad=0p pd=0u as=8.2639e+13p ps=5.2584e+08u w=6.45e+06u l=2e+06u
X5 vssa1 bgr_top_0/sky130_asc_cap_mim_m3_1_0/Cin sky130_fd_pr__cap_mim_m3_1 l=2e+06u w=2e+06u
X6 bgr_gen7_0/sky130_asc_cap_mim_m3_1_5/Cin bgr_gen7_0/sky130_asc_cap_mim_m3_1_0/Cout vccd1 vccd1 sky130_fd_pr__pfet_01v8_lvt ad=0p pd=0u as=0p ps=0u w=6.45e+06u l=2e+06u
X7 vccd1 bgr_top_0/sky130_asc_cap_mim_m3_1_5/Cout gpio_analog[3] vccd1 sky130_fd_pr__pfet_01v8_lvt ad=0p pd=0u as=7.39355e+13p ps=5.3426e+08u w=6.45e+06u l=2e+06u
X8 vssa1 bgr_top_0/sky130_asc_cap_mim_m3_1_0/Cin sky130_fd_pr__cap_mim_m3_1 l=2e+06u w=2e+06u
X9 a_511496_316775# bgr_gen7_0/sky130_asc_res_xhigh_po_2p85_1_21/Rin vssa1 sky130_fd_pr__res_xhigh_po w=2.85e+06u l=7.88e+06u
X10 bgr_top_0/sky130_asc_cap_mim_m3_1_0/Cin bgr_top_0/sky130_asc_cap_mim_m3_1_5/Cout vccd1 vccd1 sky130_fd_pr__pfet_01v8_lvt ad=0p pd=0u as=0p ps=0u w=6.45e+06u l=2e+06u
X11 bgr_gen7_0/sky130_asc_cap_mim_m3_1_0/Cout vccd1 sky130_fd_pr__cap_mim_m3_1 l=2e+06u w=2e+06u
X12 vccd1 vccd1 gpio_analog[4] vccd1 sky130_fd_pr__pfet_01v8_lvt ad=0p pd=0u as=1.595e+13p ps=1.1638e+08u w=5e+06u l=1e+06u
X13 vccd1 bgr_top_0/sky130_asc_cap_mim_m3_1_5/Cout gpio_analog[3] vccd1 sky130_fd_pr__pfet_01v8_lvt ad=0p pd=0u as=0p ps=0u w=6.45e+06u l=2e+06u
X14 bgr_top_0/sky130_asc_cap_mim_m3_1_0/Cin bgr_top_0/sky130_asc_cap_mim_m3_1_5/Cout vccd1 vccd1 sky130_fd_pr__pfet_01v8_lvt ad=0p pd=0u as=0p ps=0u w=6.45e+06u l=2e+06u
X15 bgr_gen7_0/sky130_asc_nfet_01v8_lvt_9_1/DRAIN bgr_gen7_0/sky130_asc_nfet_01v8_lvt_9_1/DRAIN vccd1 vccd1 sky130_fd_pr__pfet_01v8_lvt ad=7.482e+12p pd=5.392e+07u as=0p ps=0u w=6.45e+06u l=2e+06u
X16 vccd1 vccd1 gpio_analog[2] vccd1 sky130_fd_pr__pfet_01v8_lvt ad=0p pd=0u as=1.595e+13p ps=1.1638e+08u w=5e+06u l=1e+06u
X17 vccd1 bandgaptop_flat_io_0/bandgaptop_flat_0/currentmirror_0/Vgate bandgaptop_flat_io_0/sky130_fd_pr__rf_pnp_05v5_W3p40L3p40_0[4|2]/Emitter vccd1 sky130_fd_pr__pfet_01v8_lvt ad=0p pd=0u as=7.8898e+13p ps=4.8148e+08u w=3.87e+07u l=2e+06u
X18 bgr_top_0/sky130_asc_cap_mim_m3_1_5/Cout vccd1 sky130_fd_pr__cap_mim_m3_1 l=2e+06u w=2e+06u
X19 bgr_gen7_0/sky130_asc_cap_mim_m3_1_0/Cout vccd1 sky130_fd_pr__cap_mim_m3_1 l=2e+06u w=2e+06u
X20 vccd1 bandgaptop_flat_io_0/bandgaptop_flat_0/currentmirror_0/Vgate bandgaptop_flat_io_0/sky130_fd_pr__rf_pnp_05v5_W3p40L3p40_0[4|2]/Emitter vccd1 sky130_fd_pr__pfet_01v8_lvt ad=0p pd=0u as=0p ps=0u w=3.87e+07u l=2e+06u
X21 a_504707_433422# bgr_top_0/sky130_asc_res_xhigh_po_2p85_1_3/Rout vssa1 sky130_fd_pr__res_xhigh_po w=2.85e+06u l=7.88e+06u
X22 a_511496_343921# bgr_gen7_0/sky130_asc_res_xhigh_po_2p85_1_18/Rout vssa1 sky130_fd_pr__res_xhigh_po w=2.85e+06u l=7.88e+06u
X23 gpio_analog[3] bgr_top_0/sky130_asc_cap_mim_m3_1_5/Cout vccd1 vccd1 sky130_fd_pr__pfet_01v8_lvt ad=0p pd=0u as=0p ps=0u w=6.45e+06u l=2e+06u
X24 gpio_analog[4] vccd1 vccd1 vccd1 sky130_fd_pr__pfet_01v8_lvt ad=0p pd=0u as=0p ps=0u w=5e+06u l=1e+06u
X25 bandgaptop_flat_io_0/sky130_fd_pr__rf_pnp_05v5_W3p40L3p40_0[4|2]/Emitter vssa1 sky130_fd_pr__cap_mim_m3_2 l=2e+06u w=2e+06u
X26 vccd1 bgr_gen7_0/sky130_asc_nfet_01v8_lvt_9_1/DRAIN bgr_gen7_0/sky130_asc_nfet_01v8_lvt_9_1/DRAIN vccd1 sky130_fd_pr__pfet_01v8_lvt ad=0p pd=0u as=0p ps=0u w=6.45e+06u l=2e+06u
X27 vssa1 bgr_top_0/sky130_asc_cap_mim_m3_1_0/Cin sky130_fd_pr__cap_mim_m3_1 l=2e+06u w=2e+06u
X28 vccd1 vccd1 gpio_analog[5] vccd1 sky130_fd_pr__pfet_01v8_lvt ad=0p pd=0u as=8.3288e+13p ps=5.8426e+08u w=5e+06u l=1e+06u
X29 bgr_gen7_0/sky130_asc_cap_mim_m3_1_0/Cout vccd1 sky130_fd_pr__cap_mim_m3_1 l=2e+06u w=2e+06u
X30 vccd1 bgr_gen7_0/sky130_asc_nfet_01v8_lvt_9_1/DRAIN bgr_gen7_0/sky130_asc_nfet_01v8_lvt_9_1/DRAIN vccd1 sky130_fd_pr__pfet_01v8_lvt ad=0p pd=0u as=0p ps=0u w=6.45e+06u l=2e+06u
X31 gpio_analog[4] vssa1 vssa1 vssa1 sky130_fd_pr__nfet_01v8_lvt ad=1.595e+13p pd=1.1638e+08u as=8.9279e+14p ps=5.17414e+09u w=5e+06u l=1e+06u
X32 gpio_analog[2] vccd1 vccd1 vccd1 sky130_fd_pr__pfet_01v8_lvt ad=0p pd=0u as=0p ps=0u w=5e+06u l=1e+06u
X33 gpio_analog[4] vccd1 vccd1 vccd1 sky130_fd_pr__pfet_01v8_lvt ad=0p pd=0u as=0p ps=0u w=5e+06u l=1e+06u
X34 vssa1 bgr_top_0/sky130_asc_cap_mim_m3_1_0/Cin sky130_fd_pr__cap_mim_m3_1 l=2e+06u w=2e+06u
X35 gpio_analog[3] vssa1 vssa1 vssa1 sky130_fd_pr__nfet_01v8_lvt ad=1.595e+13p pd=1.1638e+08u as=0p ps=0u w=5e+06u l=1e+06u
X36 vssa1 bandgaptop_flat_io_0/bandgaptop_flat_0/amplifier_0/Vx bandgaptop_flat_io_0/bandgaptop_flat_0/amplifier_0/Vq vssa1 sky130_fd_pr__nfet_01v8_lvt ad=0p pd=0u as=1.624e+13p ps=1.1606e+08u w=2e+06u l=2e+06u
X37 gpio_analog[1] bgr_gen7_0/sky130_asc_cap_mim_m3_1_0/Cout vccd1 vccd1 sky130_fd_pr__pfet_01v8_lvt ad=7.39355e+13p pd=5.3426e+08u as=0p ps=0u w=6.45e+06u l=2e+06u
X38 vssa1 bgr_top_0/sky130_asc_cap_mim_m3_1_0/Cin sky130_fd_pr__cap_mim_m3_1 l=2e+06u w=2e+06u
X39 vssa1 bgr_gen7_0/sky130_asc_cap_mim_m3_1_5/Cin sky130_fd_pr__cap_mim_m3_1 l=2e+06u w=2e+06u
X40 vccd1 vccd1 bgr_top_0/sky130_asc_cap_mim_m3_1_0/Cin vccd1 sky130_fd_pr__pfet_01v8_lvt ad=0p pd=0u as=0p ps=0u w=6.45e+06u l=2e+06u
X41 vssa1 vssa1 gpio_analog[4] vssa1 sky130_fd_pr__nfet_01v8_lvt ad=0p pd=0u as=0p ps=0u w=5e+06u l=1e+06u
X42 vssa1 vssa1 bandgaptop_flat_io_0/sky130_fd_pr__rf_pnp_05v5_W3p40L3p40_0[7|4]/Emitter sky130_fd_pr__pnp_05v5_W3p40L3p40
X43 bgr_top_0/sky130_asc_cap_mim_m3_1_5/Cout vccd1 sky130_fd_pr__cap_mim_m3_1 l=2e+06u w=2e+06u
X44 gpio_analog[3] vssa1 vssa1 vssa1 sky130_fd_pr__nfet_01v8_lvt ad=0p pd=0u as=0p ps=0u w=5e+06u l=1e+06u
X45 a_512227_437244# bgr_top_0/sky130_asc_res_xhigh_po_2p85_1_13/Rout vssa1 sky130_fd_pr__res_xhigh_po w=2.85e+06u l=7.88e+06u
X46 gpio_analog[1] bgr_gen7_0/sky130_asc_cap_mim_m3_1_0/Cout vccd1 vccd1 sky130_fd_pr__pfet_01v8_lvt ad=0p pd=0u as=0p ps=0u w=6.45e+06u l=2e+06u
X47 bgr_top_0/sky130_asc_cap_mim_m3_1_0/Cin vccd1 vccd1 vccd1 sky130_fd_pr__pfet_01v8_lvt ad=0p pd=0u as=0p ps=0u w=6.45e+06u l=2e+06u
X48 bandgaptop_flat_io_0/sky130_fd_pr__rf_pnp_05v5_W3p40L3p40_0[4|2]/Emitter vssa1 sky130_fd_pr__cap_mim_m3_2 l=2e+06u w=2e+06u
X49 bgr_top_0/sky130_asc_cap_mim_m3_1_5/Cout vccd1 sky130_fd_pr__cap_mim_m3_1 l=2e+06u w=2e+06u
X50 vssa1 vssa1 gpio_analog[4] vssa1 sky130_fd_pr__nfet_01v8_lvt ad=0p pd=0u as=0p ps=0u w=5e+06u l=1e+06u
X51 gpio_analog[2] vssa1 vssa1 vssa1 sky130_fd_pr__nfet_01v8_lvt ad=1.595e+13p pd=1.1638e+08u as=0p ps=0u w=5e+06u l=1e+06u
X52 vssa1 vssa1 bandgaptop_flat_io_0/sky130_fd_pr__rf_pnp_05v5_W3p40L3p40_0[7|4]/Emitter sky130_fd_pr__pnp_05v5_W3p40L3p40
X53 bandgaptop_flat_io_0/sky130_fd_pr__rf_pnp_05v5_W3p40L3p40_0[4|2]/Emitter vssa1 sky130_fd_pr__cap_mim_m3_2 l=2e+06u w=2e+06u
X54 bgr_gen7_0/sky130_asc_cap_mim_m3_1_0/Cout bgr_gen7_0/sky130_asc_cap_mim_m3_1_5/Cin bgr_gen7_0/sky130_asc_nfet_01v8_lvt_1_0/DRAIN vssa1 sky130_fd_pr__nfet_01v8_lvt ad=1.16e+13p pd=8.58e+07u as=1.276e+13p ps=9.438e+07u w=4e+06u l=2e+06u
X55 vssa1 vssa1 bgr_gen7_0/sky130_asc_pnp_05v5_W3p40L3p40_7_0/Emitter sky130_fd_pr__pnp_05v5 area=0p
X56 bgr_gen7_0/sky130_asc_cap_mim_m3_1_0/Cout vccd1 sky130_fd_pr__cap_mim_m3_1 l=2e+06u w=2e+06u
X57 bgr_top_0/sky130_asc_cap_mim_m3_1_5/Cout vccd1 sky130_fd_pr__cap_mim_m3_1 l=2e+06u w=2e+06u
X58 gpio_analog[1] bgr_gen7_0/sky130_asc_cap_mim_m3_1_0/Cout vccd1 vccd1 sky130_fd_pr__pfet_01v8_lvt ad=0p pd=0u as=0p ps=0u w=6.45e+06u l=2e+06u
X59 gpio_analog[4] vssa1 vssa1 vssa1 sky130_fd_pr__nfet_01v8_lvt ad=0p pd=0u as=0p ps=0u w=5e+06u l=1e+06u
X60 a_512652_507018# a_519388_504564# vssa1 sky130_fd_pr__res_xhigh_po_2p85 l=3.152e+07u
X61 a_515256_324027# bgr_gen7_0/sky130_asc_res_xhigh_po_2p85_1_11/Rin vssa1 sky130_fd_pr__res_xhigh_po w=2.85e+06u l=7.88e+06u
X62 a_519747_404512# bgr_top_0/sky130_asc_res_xhigh_po_2p85_1_9/Rin vssa1 sky130_fd_pr__res_xhigh_po w=2.85e+06u l=7.88e+06u
X63 vssa1 vssa1 gpio_analog[1] vssa1 sky130_fd_pr__nfet_01v8_lvt ad=0p pd=0u as=1.595e+13p ps=1.1638e+08u w=5e+06u l=1e+06u
X64 bgr_gen7_0/sky130_asc_cap_mim_m3_1_5/Cin bgr_gen7_0/sky130_asc_cap_mim_m3_1_0/Cout vccd1 vccd1 sky130_fd_pr__pfet_01v8_lvt ad=0p pd=0u as=0p ps=0u w=6.45e+06u l=2e+06u
X65 gpio_analog[2] vssa1 vssa1 vssa1 sky130_fd_pr__nfet_01v8_lvt ad=0p pd=0u as=0p ps=0u w=5e+06u l=1e+06u
X66 vssa1 vssa1 bandgaptop_flat_io_0/sky130_fd_pr__rf_pnp_05v5_W3p40L3p40_0[7|4]/Emitter sky130_fd_pr__pnp_05v5_W3p40L3p40
X67 vssa1 bgr_gen7_0/sky130_asc_cap_mim_m3_1_5/Cin sky130_fd_pr__cap_mim_m3_1 l=2e+06u w=2e+06u
X68 bgr_top_0/sky130_asc_cap_mim_m3_1_5/Cout vccd1 sky130_fd_pr__cap_mim_m3_1 l=2e+06u w=2e+06u
X69 vssa1 bgr_top_0/sky130_asc_cap_mim_m3_1_0/Cin sky130_fd_pr__cap_mim_m3_1 l=2e+06u w=2e+06u
X70 gpio_analog[3] vccd1 vccd1 vccd1 sky130_fd_pr__pfet_01v8_lvt ad=0p pd=0u as=0p ps=0u w=5e+06u l=1e+06u
X71 a_512652_502110# a_519388_506200# vssa1 sky130_fd_pr__res_xhigh_po_2p85 l=3.152e+07u
X72 bgr_gen7_0/sky130_asc_cap_mim_m3_1_5/Cin bgr_gen7_0/sky130_asc_cap_mim_m3_1_0/Cout vccd1 vccd1 sky130_fd_pr__pfet_01v8_lvt ad=0p pd=0u as=0p ps=0u w=6.45e+06u l=2e+06u
X73 vssa1 vssa1 gpio_analog[6] vssa1 sky130_fd_pr__nfet_01v8_lvt ad=0p pd=0u as=1.595e+13p ps=1.1638e+08u w=5e+06u l=1e+06u
X74 bgr_top_0/sky130_asc_cap_mim_m3_1_5/Cout vccd1 sky130_fd_pr__cap_mim_m3_1 l=2e+06u w=2e+06u
X75 vccd1 bgr_gen7_0/sky130_asc_cap_mim_m3_1_0/Cout bgr_gen7_0/sky130_asc_nfet_01v8_lvt_9_1/GATE vccd1 sky130_fd_pr__pfet_01v8_lvt ad=0p pd=0u as=5.79855e+13p ps=4.1788e+08u w=6.45e+06u l=2e+06u
X76 bgr_top_0/sky130_asc_nfet_01v8_lvt_9_1/GATE bgr_top_0/sky130_asc_cap_mim_m3_1_5/Cout vccd1 vccd1 sky130_fd_pr__pfet_01v8_lvt ad=5.79855e+13p pd=4.1788e+08u as=0p ps=0u w=6.45e+06u l=2e+06u
X77 gpio_analog[6] vccd1 vccd1 vccd1 sky130_fd_pr__pfet_01v8_lvt ad=1.595e+13p pd=1.1638e+08u as=0p ps=0u w=5e+06u l=1e+06u
X78 vssa1 vssa1 gpio_analog[1] vssa1 sky130_fd_pr__nfet_01v8_lvt ad=0p pd=0u as=0p ps=0u w=5e+06u l=1e+06u
X79 bandgaptop_flat_io_0/sky130_fd_pr__rf_pnp_05v5_W3p40L3p40_0[4|2]/Emitter vssa1 sky130_fd_pr__cap_mim_m3_2 l=2e+06u w=2e+06u
X80 bgr_top_0/sky130_asc_cap_mim_m3_1_5/Cout vccd1 sky130_fd_pr__cap_mim_m3_1 l=2e+06u w=2e+06u
X81 a_530296_328045# bgr_gen7_0/sky130_asc_res_xhigh_po_2p85_1_0/Rout vssa1 sky130_fd_pr__res_xhigh_po w=2.85e+06u l=7.88e+06u
X82 vssa1 vssa1 bandgaptop_flat_io_0/sky130_fd_pr__rf_pnp_05v5_W3p40L3p40_0[7|4]/Emitter sky130_fd_pr__pnp_05v5_W3p40L3p40
X83 vssa1 vssa1 bgr_top_0/sky130_asc_pnp_05v5_W3p40L3p40_7_0/Emitter sky130_fd_pr__pnp_05v5 area=0p
X84 vccd1 bgr_gen7_0/sky130_asc_cap_mim_m3_1_0/Cout bgr_gen7_0/sky130_asc_nfet_01v8_lvt_9_1/GATE vccd1 sky130_fd_pr__pfet_01v8_lvt ad=0p pd=0u as=0p ps=0u w=6.45e+06u l=2e+06u
X85 vccd1 bgr_gen7_0/sky130_asc_cap_mim_m3_1_0/Cout bgr_gen7_0/sky130_asc_cap_mim_m3_1_5/Cin vccd1 sky130_fd_pr__pfet_01v8_lvt ad=0p pd=0u as=0p ps=0u w=6.45e+06u l=2e+06u
X86 bandgaptop_flat_io_0/sky130_fd_pr__rf_pnp_05v5_W3p40L3p40_0[4|2]/Emitter vssa1 sky130_fd_pr__cap_mim_m3_2 l=2e+06u w=2e+06u
X87 vssa1 bgr_top_0/sky130_asc_cap_mim_m3_1_0/Cin sky130_fd_pr__cap_mim_m3_1 l=2e+06u w=2e+06u
X88 bgr_gen7_0/sky130_asc_nfet_01v8_lvt_9_1/GATE bgr_gen7_0/sky130_asc_cap_mim_m3_1_0/Cout vccd1 vccd1 sky130_fd_pr__pfet_01v8_lvt ad=0p pd=0u as=0p ps=0u w=6.45e+06u l=2e+06u
X89 vccd1 bgr_top_0/sky130_asc_cap_mim_m3_1_5/Cout bgr_top_0/sky130_asc_nfet_01v8_lvt_9_1/GATE vccd1 sky130_fd_pr__pfet_01v8_lvt ad=0p pd=0u as=0p ps=0u w=6.45e+06u l=2e+06u
X90 vssa1 vssa1 bgr_gen7_0/sky130_asc_pnp_05v5_W3p40L3p40_7_0/Emitter sky130_fd_pr__pnp_05v5 area=0p
X91 bgr_top_0/sky130_asc_cap_mim_m3_1_5/Cout vccd1 sky130_fd_pr__cap_mim_m3_1 l=2e+06u w=2e+06u
X92 vssa1 bgr_gen7_0/sky130_asc_cap_mim_m3_1_5/Cin sky130_fd_pr__cap_mim_m3_1 l=2e+06u w=2e+06u
X93 bgr_top_0/sky130_asc_cap_mim_m3_1_5/Cout vccd1 sky130_fd_pr__cap_mim_m3_1 l=2e+06u w=2e+06u
X94 gpio_analog[1] vssa1 vssa1 vssa1 sky130_fd_pr__nfet_01v8_lvt ad=0p pd=0u as=0p ps=0u w=5e+06u l=1e+06u
X95 bgr_gen7_0/sky130_asc_nfet_01v8_lvt_9_1/GATE bgr_gen7_0/sky130_asc_cap_mim_m3_1_0/Cout vccd1 vccd1 sky130_fd_pr__pfet_01v8_lvt ad=0p pd=0u as=0p ps=0u w=6.45e+06u l=2e+06u
X96 a_500947_436166# bgr_top_0/sky130_asc_res_xhigh_po_2p85_1_2/Rout vssa1 sky130_fd_pr__res_xhigh_po w=2.85e+06u l=7.88e+06u
X97 vccd1 bgr_top_0/sky130_asc_cap_mim_m3_1_5/Cout bgr_top_0/sky130_asc_cap_mim_m3_1_0/Cin vccd1 sky130_fd_pr__pfet_01v8_lvt ad=0p pd=0u as=0p ps=0u w=6.45e+06u l=2e+06u
X98 bandgaptop_flat_io_0/sky130_fd_pr__rf_pnp_05v5_W3p40L3p40_0[4|2]/Emitter vssa1 sky130_fd_pr__cap_mim_m3_2 l=2e+06u w=2e+06u
X99 vccd1 bgr_top_0/sky130_asc_cap_mim_m3_1_5/Cout bgr_top_0/sky130_asc_nfet_01v8_lvt_1_0/DRAIN vccd1 sky130_fd_pr__pfet_01v8_lvt ad=0p pd=0u as=1.30935e+13p ps=9.436e+07u w=6.45e+06u l=2e+06u
X100 vccd1 bgr_top_0/sky130_asc_cap_mim_m3_1_5/Cout bgr_top_0/sky130_asc_cap_mim_m3_1_0/Cin vccd1 sky130_fd_pr__pfet_01v8_lvt ad=0p pd=0u as=0p ps=0u w=6.45e+06u l=2e+06u
X101 bandgaptop_flat_io_0/sky130_fd_pr__rf_pnp_05v5_W3p40L3p40_0[4|2]/Emitter bandgaptop_flat_io_0/bandgaptop_flat_0/currentmirror_0/Vgate vccd1 vccd1 sky130_fd_pr__pfet_01v8_lvt ad=0p pd=0u as=0p ps=0u w=3.87e+07u l=2e+06u
X102 bandgaptop_flat_io_0/sky130_fd_pr__rf_pnp_05v5_W3p40L3p40_0[4|2]/Emitter vssa1 sky130_fd_pr__cap_mim_m3_2 l=2e+06u w=2e+06u
X103 a_511496_349422# bgr_gen7_0/sky130_asc_res_xhigh_po_2p85_1_10/Rout vssa1 sky130_fd_pr__res_xhigh_po w=2.85e+06u l=1.075e+07u
X104 vssa1 vssa1 bgr_top_0/sky130_asc_pnp_05v5_W3p40L3p40_7_0/Emitter sky130_fd_pr__pnp_05v5 area=0p
X105 bandgaptop_flat_io_0/sky130_fd_pr__rf_pnp_05v5_W3p40L3p40_0[4|2]/Emitter bandgaptop_flat_io_0/bandgaptop_flat_0/currentmirror_0/Vgate vccd1 vccd1 sky130_fd_pr__pfet_01v8_lvt ad=0p pd=0u as=0p ps=0u w=3.87e+07u l=2e+06u
X106 bgr_top_0/sky130_asc_nfet_01v8_lvt_1_0/DRAIN bgr_top_0/sky130_asc_cap_mim_m3_1_5/Cout vccd1 vccd1 sky130_fd_pr__pfet_01v8_lvt ad=0p pd=0u as=0p ps=0u w=6.45e+06u l=2e+06u
X107 bgr_gen7_0/sky130_asc_nfet_01v8_lvt_9_1/DRAIN bgr_gen7_0/sky130_asc_nfet_01v8_lvt_9_1/DRAIN vccd1 vccd1 sky130_fd_pr__pfet_01v8_lvt ad=0p pd=0u as=0p ps=0u w=6.45e+06u l=2e+06u
X108 vssa1 bgr_top_0/sky130_asc_cap_mim_m3_1_0/Cin sky130_fd_pr__cap_mim_m3_1 l=2e+06u w=2e+06u
X109 vssa1 bgr_gen7_0/sky130_asc_cap_mim_m3_1_5/Cin sky130_fd_pr__cap_mim_m3_1 l=2e+06u w=2e+06u
X110 bgr_top_0/sky130_asc_cap_mim_m3_1_5/Cout vccd1 sky130_fd_pr__cap_mim_m3_1 l=2e+06u w=2e+06u
X111 vccd1 bgr_top_0/sky130_asc_cap_mim_m3_1_5/Cout bgr_top_0/sky130_asc_nfet_01v8_lvt_9_1/GATE vccd1 sky130_fd_pr__pfet_01v8_lvt ad=0p pd=0u as=0p ps=0u w=6.45e+06u l=2e+06u
X112 gpio_analog[5] a_519388_499656# vssa1 sky130_fd_pr__res_xhigh_po_2p85 l=3.152e+07u
X113 vssa1 vssa1 bgr_top_0/sky130_asc_pnp_05v5_W3p40L3p40_7_0/Emitter sky130_fd_pr__pnp_05v5 area=0p
X114 bandgaptop_flat_io_0/sky130_fd_pr__rf_pnp_05v5_W3p40L3p40_0[4|2]/Emitter vssa1 sky130_fd_pr__cap_mim_m3_2 l=2e+06u w=2e+06u
X115 vssa1 bgr_top_0/sky130_asc_cap_mim_m3_1_0/Cin sky130_fd_pr__cap_mim_m3_1 l=2e+06u w=2e+06u
X116 bandgaptop_flat_io_0/sky130_fd_pr__rf_pnp_05v5_W3p40L3p40_0[4|2]/Emitter vssa1 sky130_fd_pr__cap_mim_m3_2 l=2e+06u w=2e+06u
X117 a_507736_355485# bgr_gen7_0/sky130_asc_res_xhigh_po_2p85_1_24/Rout vssa1 sky130_fd_pr__res_xhigh_po w=2.85e+06u l=7.88e+06u
X118 vccd1 bgr_top_0/sky130_asc_cap_mim_m3_1_5/Cout gpio_analog[3] vccd1 sky130_fd_pr__pfet_01v8_lvt ad=0p pd=0u as=0p ps=0u w=6.45e+06u l=2e+06u
X119 bgr_gen7_0/sky130_asc_nfet_01v8_lvt_9_1/DRAIN bgr_gen7_0/sky130_asc_nfet_01v8_lvt_9_1/DRAIN vccd1 vccd1 sky130_fd_pr__pfet_01v8_lvt ad=0p pd=0u as=0p ps=0u w=6.45e+06u l=2e+06u
X120 a_523507_403826# vssa1 vssa1 sky130_fd_pr__res_xhigh_po w=2.85e+06u l=7.88e+06u
X121 vccd1 bandgaptop_flat_io_0/bandgaptop_flat_0/currentmirror_0/Vgate bandgaptop_flat_io_0/sky130_fd_pr__rf_pnp_05v5_W3p40L3p40_0[4|2]/Emitter vccd1 sky130_fd_pr__pfet_01v8_lvt ad=0p pd=0u as=0p ps=0u w=3.87e+07u l=2e+06u
X122 bandgaptop_flat_io_0/bandgaptop_flat_0/amplifier_0/Vq bandgaptop_flat_io_0/bandgaptop_flat_0/amplifier_0/Vx vssa1 vssa1 sky130_fd_pr__nfet_01v8_lvt ad=0p pd=0u as=0p ps=0u w=2e+06u l=2e+06u
X123 bandgaptop_flat_io_0/sky130_fd_pr__rf_pnp_05v5_W3p40L3p40_0[4|2]/Emitter vssa1 sky130_fd_pr__cap_mim_m3_2 l=2e+06u w=2e+06u
X124 bgr_top_0/sky130_asc_cap_mim_m3_1_5/Cout vccd1 sky130_fd_pr__cap_mim_m3_1 l=2e+06u w=2e+06u
X125 vssa1 bgr_gen7_0/sky130_asc_cap_mim_m3_1_5/Cin sky130_fd_pr__cap_mim_m3_1 l=2e+06u w=2e+06u
X126 bgr_top_0/sky130_asc_cap_mim_m3_1_5/Cout vccd1 sky130_fd_pr__cap_mim_m3_1 l=2e+06u w=2e+06u
X127 bgr_gen7_0/sky130_asc_cap_mim_m3_1_5/Cin bgr_gen7_0/sky130_asc_cap_mim_m3_1_0/Cout vccd1 vccd1 sky130_fd_pr__pfet_01v8_lvt ad=0p pd=0u as=0p ps=0u w=6.45e+06u l=2e+06u
X128 a_512227_434500# bgr_top_0/sky130_asc_res_xhigh_po_2p85_1_14/Rout vssa1 sky130_fd_pr__res_xhigh_po w=2.85e+06u l=7.88e+06u
X129 gpio_analog[3] bgr_top_0/sky130_asc_cap_mim_m3_1_5/Cout vccd1 vccd1 sky130_fd_pr__pfet_01v8_lvt ad=0p pd=0u as=0p ps=0u w=6.45e+06u l=2e+06u
X130 bandgaptop_flat_io_0/bandgaptop_flat_0/amplifier_0/Vx bandgaptop_flat_io_0/bandgaptop_flat_0/amplifier_0/Vx vssa1 vssa1 sky130_fd_pr__nfet_01v8_lvt ad=1.16e+12p pd=9.16e+06u as=0p ps=0u w=2e+06u l=2e+06u
X131 vccd1 bgr_gen7_0/sky130_asc_cap_mim_m3_1_0/Cout gpio_analog[1] vccd1 sky130_fd_pr__pfet_01v8_lvt ad=0p pd=0u as=0p ps=0u w=6.45e+06u l=2e+06u
X132 bgr_top_0/sky130_asc_nfet_01v8_lvt_9_1/GATE bgr_top_0/sky130_asc_cap_mim_m3_1_5/Cout vccd1 vccd1 sky130_fd_pr__pfet_01v8_lvt ad=0p pd=0u as=0p ps=0u w=6.45e+06u l=2e+06u
X133 a_523507_406570# bgr_top_0/sky130_asc_res_xhigh_po_2p85_1_4/Rin vssa1 sky130_fd_pr__res_xhigh_po w=2.85e+06u l=7.88e+06u
X134 bgr_top_0/sky130_asc_cap_mim_m3_1_5/Cout vccd1 sky130_fd_pr__cap_mim_m3_1 l=2e+06u w=2e+06u
X135 gpio_analog[5] vssa1 vssa1 vssa1 sky130_fd_pr__nfet_01v8_lvt ad=1.595e+13p pd=1.1638e+08u as=0p ps=0u w=5e+06u l=1e+06u
X136 bandgaptop_flat_io_0/sky130_fd_pr__rf_pnp_05v5_W3p40L3p40_0[4|2]/Emitter vssa1 sky130_fd_pr__cap_mim_m3_2 l=2e+06u w=2e+06u
X137 vccd1 bgr_gen7_0/sky130_asc_cap_mim_m3_1_0/Cout gpio_analog[1] vccd1 sky130_fd_pr__pfet_01v8_lvt ad=0p pd=0u as=0p ps=0u w=6.45e+06u l=2e+06u
X138 bandgaptop_flat_io_0/bandgaptop_flat_0/amplifier_0/vg bandgaptop_flat_io_0/bandgaptop_flat_0/amplifier_0/vg vccd1 vccd1 sky130_fd_pr__pfet_01v8_lvt ad=1.1223e+13p pd=7.914e+07u as=0p ps=0u w=1.29e+07u l=2e+06u
X139 bandgaptop_flat_io_0/sky130_fd_pr__rf_pnp_05v5_W3p40L3p40_0[4|2]/Emitter vssa1 sky130_fd_pr__cap_mim_m3_2 l=2e+06u w=2e+06u
X140 bgr_gen7_0/sky130_asc_nfet_01v8_lvt_1_0/GATE bgr_gen7_0/sky130_asc_nfet_01v8_lvt_1_0/GATE vssa1 vssa1 sky130_fd_pr__nfet_01v8_lvt ad=1.16e+12p pd=8.58e+06u as=0p ps=0u w=4e+06u l=2e+06u
X141 vssa1 vssa1 bgr_gen7_0/sky130_asc_pnp_05v5_W3p40L3p40_7_0/Emitter sky130_fd_pr__pnp_05v5 area=0p
X142 a_515256_321283# bgr_gen7_0/sky130_asc_res_xhigh_po_2p85_1_13/Rin vssa1 sky130_fd_pr__res_xhigh_po w=2.85e+06u l=7.88e+06u
X143 gpio_analog[5] vssa1 vssa1 vssa1 sky130_fd_pr__nfet_01v8_lvt ad=0p pd=0u as=0p ps=0u w=5e+06u l=1e+06u
X144 bandgaptop_flat_io_0/sky130_fd_pr__rf_pnp_05v5_W3p40L3p40_0[4|2]/Emitter vssa1 sky130_fd_pr__cap_mim_m3_2 l=2e+06u w=2e+06u
X145 vccd1 vccd1 gpio_analog[1] vccd1 sky130_fd_pr__pfet_01v8_lvt ad=0p pd=0u as=0p ps=0u w=5e+06u l=1e+06u
X146 vssa1 bgr_gen7_0/sky130_asc_cap_mim_m3_1_5/Cin sky130_fd_pr__cap_mim_m3_1 l=2e+06u w=2e+06u
X147 gpio_analog[3] bgr_top_0/sky130_asc_cap_mim_m3_1_5/Cout vccd1 vccd1 sky130_fd_pr__pfet_01v8_lvt ad=0p pd=0u as=0p ps=0u w=6.45e+06u l=2e+06u
X148 vccd1 bgr_gen7_0/sky130_asc_cap_mim_m3_1_0/Cout gpio_analog[1] vccd1 sky130_fd_pr__pfet_01v8_lvt ad=0p pd=0u as=0p ps=0u w=6.45e+06u l=2e+06u
X149 bandgaptop_flat_io_0/sky130_fd_pr__rf_pnp_05v5_W3p40L3p40_0[4|2]/Emitter vssa1 sky130_fd_pr__cap_mim_m3_2 l=2e+06u w=2e+06u
X150 vssa1 bgr_top_0/sky130_asc_cap_mim_m3_1_0/Cin sky130_fd_pr__cap_mim_m3_1 l=2e+06u w=2e+06u
X151 a_530296_322557# vssa1 vssa1 sky130_fd_pr__res_xhigh_po w=2.85e+06u l=7.88e+06u
X152 bgr_gen7_0/sky130_asc_nfet_01v8_lvt_1_0/GATE bgr_gen7_0/sky130_asc_cap_mim_m3_1_0/Cout vccd1 vccd1 sky130_fd_pr__pfet_01v8_lvt ad=1.30935e+13p pd=9.436e+07u as=0p ps=0u w=6.45e+06u l=2e+06u
X153 vssa1 bgr_top_0/sky130_asc_cap_mim_m3_1_0/Cin sky130_fd_pr__cap_mim_m3_1 l=2e+06u w=2e+06u
X154 bgr_top_0/sky130_asc_cap_mim_m3_1_5/Cout vccd1 sky130_fd_pr__cap_mim_m3_1 l=2e+06u w=2e+06u